geometry optimzed in LAMMPS
_audit_creation_date              2020-11-30 
_audit_creation_method            'lammps2cif' 
_symmetry_space_group_name_H-M    'P1' 
_symmetry_Int_Tables_number       1 
_symmetry_cell_setting            triclinic 
loop_ 
_symmetry_equiv_pos_as_xyz 
  x,y,z 
_cell_length_a                    29.458309914381108 
_cell_length_b                    29.461968008258662 
_cell_length_c                    29.451176596028922 
_cell_angle_alpha                 90.00145986232579 
_cell_angle_beta                  89.99888858719343 
_cell_angle_gamma                 89.99961452899345 
loop_ 
_atom_site_label 
_atom_site_type_symbol 
_atom_site_fract_x 
_atom_site_fract_y 
_atom_site_fract_z 
_atom_site_charge 
C1          C  0.58870753  0.62239591  0.49996615     0.05570
C2          C  0.57308070  0.64219420  0.45927954    -0.10580
C3          C  0.58744265  0.68611681  0.44700453     0.03070
C4          C  0.61797669  0.70937478  0.47497080    -0.09100
C5          C  0.63560106  0.68952055  0.51408494     0.05570
C6          C  0.62013573  0.64617467  0.52717474    -0.08520
H7          H  0.55043701  0.62343110  0.43716251     0.11160
H8          H  0.63007128  0.74265421  0.46491504     0.08690
H9          H  0.63300484  0.63066332  0.55796228     0.08540
C10         C  0.67983983  0.44561667  0.58497493     0.05570
C11         C  0.69936351  0.40486018  0.56924354    -0.10580
C12         C  0.74335667  0.39244359  0.58326127     0.03070
C13         C  0.76698229  0.42035914  0.61357575    -0.09100
C14         C  0.74741350  0.45958187  0.63129151     0.05570
C15         C  0.70397542  0.47278581  0.61615978    -0.08520
H16         H  0.68033093  0.38279050  0.54677836     0.11160
H17         H  0.80031522  0.41018094  0.62543156     0.08690
H18         H  0.68866451  0.50362932  0.62911294     0.08540
C19         C  0.50308303  0.53039719  0.67684216     0.05570
C20         C  0.46235346  0.51462784  0.69640373    -0.10580
C21         C  0.45009509  0.52841812  0.74052693     0.03070
C22         C  0.47813406  0.55853346  0.76424630    -0.09100
C23         C  0.51731187  0.57629400  0.74464546     0.05570
C24         C  0.53036311  0.56139717  0.70107347    -0.08520
H25         H  0.44018755  0.49231341  0.67730790     0.11160
H26         H  0.46808699  0.57021126  0.79768870     0.08690
H27         H  0.56119262  0.57437338  0.68574487     0.08540
C28         C  0.55343396  0.49608036  0.55024840    -0.00040
In29       In  0.72587091  0.76541624  0.59055932     1.36870
C30         C  0.79441309  0.71236972  0.60895355     0.80030
O31         O  0.71425980  0.76312736  0.66503522    -0.58420
O32         O  0.66208373  0.79107980  0.62344207    -0.49330
C33         C  0.76094454  0.84702321  0.57568096     0.72690
O34         O  0.78416286  0.81174827  0.56974425    -0.44190
C35         C  0.66986302  0.71510732  0.54043642     0.77400
O36         O  0.77437692  0.73552628  0.63884520    -0.56050
O37         O  0.68142790  0.70413487  0.57998523    -0.46140
O38         O  0.78073724  0.71758540  0.56857887    -0.52480
C39         C  0.67490281  0.77958742  0.66253304     0.87580
O40         O  0.71925966  0.83985494  0.58132117    -0.54370
O41         O  0.68908069  0.75058218  0.52556566    -0.57670
In42       In  0.59419313  0.66555601  0.82128861     1.36870
C43         C  0.61309108  0.73299062  0.76699139     0.80030
O44         O  0.66875191  0.65430498  0.82294153    -0.58420
O45         O  0.62578063  0.60049883  0.84516261    -0.49330
C46         C  0.57972194  0.70175560  0.90250207     0.72690
O47         O  0.57431136  0.72464454  0.86692966    -0.44190
C48         C  0.54378684  0.61013654  0.77065042     0.77400
O49         O  0.57242665  0.72149642  0.77456903    -0.56050
O50         O  0.58325243  0.62187125  0.75958590    -0.46140
O51         O  0.64316936  0.71114376  0.78818638    -0.52480
C52         C  0.66542493  0.61400560  0.83679357     0.87580
O53         O  0.58452745  0.65987428  0.89586570    -0.54370
O54         O  0.52913258  0.62882217  0.80652053    -0.57670
In55       In  0.82375293  0.53582482  0.72147138     1.36870
C56         C  0.76965748  0.55313945  0.78950738     0.80030
O57         O  0.82431182  0.61051274  0.71077622    -0.58420
O58         O  0.84899267  0.56833291  0.65740999    -0.49330
C59         C  0.90520511  0.52149222  0.75716978     0.72690
O60         O  0.86980651  0.51663732  0.78043830    -0.44190
C61         C  0.77329114  0.48588693  0.66538944     0.77400
O62         O  0.77766409  0.51272252  0.77743567    -0.56050
O63         O  0.76240309  0.52541285  0.67708285    -0.46140
O64         O  0.79028389  0.58376387  0.76786365    -0.52480
C65         C  0.83962459  0.60773135  0.67094848     0.87580
O66         O  0.89825532  0.52575587  0.71527009    -0.54370
O67         O  0.80887492  0.47097856  0.68439050    -0.57670
C68         C  0.17932814  0.44458004  0.93264414     0.05570
C69         C  0.19874181  0.40388590  0.94868628    -0.10580
C70         C  0.24270343  0.39125027  0.93474978     0.03070
C71         C  0.26636479  0.41882312  0.90415165    -0.09100
C72         C  0.24689745  0.45796160  0.88615669     0.05570
C73         C  0.20352070  0.47141865  0.90122969    -0.08520
H74         H  0.17967917  0.38206408  0.97136556     0.11160
H75         H  0.29966518  0.40845968  0.89235807     0.08690
H76         H  0.18831384  0.50223338  0.88808720     0.08540
C77         C  0.08874136  0.62227920  0.01718421     0.05570
C78         C  0.12008485  0.64586207  0.98968743    -0.10580
C79         C  0.13563845  0.68927237  0.00245041     0.03070
C80         C  0.11817543  0.70939440  0.04148232    -0.09100
C81         C  0.08780539  0.68634835  0.06978401     0.05570
C82         C  0.07331317  0.64236273  0.05783015    -0.08520
H83         H  0.13284987  0.63014079  0.95896212     0.11160
H84         H  0.13033816  0.74274023  0.05122590     0.08690
H85         H  0.05077853  0.62374977  0.08018102     0.08540
C86         C  0.00338434  0.53141097  0.84064548     0.05570
C87         C  0.96253486  0.51596808  0.82109381    -0.10580
C88         C  0.95024364  0.53005062  0.77708470     0.03070
C89         C  0.97836403  0.56013696  0.75344386    -0.09100
C90         C  0.01769636  0.57759578  0.77301497     0.05570
C91         C  0.03077545  0.56241408  0.81650221    -0.08520
H92         H  0.94030392  0.49365077  0.84011192     0.11160
H93         H  0.96827183  0.57200988  0.72008479     0.08690
H94         H  0.06171628  0.57513876  0.83181343     0.08540
C95         C  0.05320718  0.49591804  0.96718135    -0.00040
In96       In  0.22625873  0.76473114  0.92599734     1.36870
C97         C  0.29383599  0.71015112  0.90865658     0.80030
O98         O  0.18946011  0.74997033  0.99091159    -0.58420
O99         O  0.18129786  0.70373884  0.93636010    -0.49330
C100        C  0.26198471  0.84608199  0.94071997     0.72690
O101        O  0.28534748  0.81068242  0.94502257    -0.44190
C102        C  0.17584536  0.78060505  0.85401016     0.77400
O103        O  0.28154533  0.71786339  0.94907781    -0.56050
O104        O  0.16222216  0.78991766  0.89340213    -0.46140
O105        O  0.27273055  0.73139140  0.87807843    -0.52480
C106        C  0.16995435  0.71466976  0.97599193     0.87580
O107        O  0.22007188  0.83910959  0.93673397    -0.54370
O108        O  0.21571434  0.76543923  0.85128085    -0.57670
In109      In  0.32372279  0.53398071  0.79629708     1.36870
C110        C  0.26984307  0.55248285  0.72842103     0.80030
O111        O  0.30844877  0.46902414  0.83306312    -0.58420
O112        O  0.26218725  0.52365603  0.84035113    -0.49330
C113        C  0.40511482  0.51962174  0.76050045     0.72690
O114        O  0.36969249  0.51462259  0.73729033    -0.44190
C115        C  0.33949558  0.60532664  0.84759717     0.77400
O116        O  0.27714598  0.51188631  0.74034208    -0.56050
O117        O  0.34882255  0.56580007  0.86079245    -0.46140
O118        O  0.29112273  0.58265639  0.75006124    -0.52480
C119        C  0.27289489  0.48407945  0.85202154     0.87580
O120        O  0.39821011  0.52389653  0.80240725    -0.54370
O121        O  0.32438810  0.60850290  0.80772501    -0.57670
In122      In  0.09485547  0.66659629  0.69621229     1.36870
C123        C  0.11400277  0.73474254  0.74953835     0.80030
O124        O  0.02973448  0.62999188  0.71105955    -0.58420
O125        O  0.08373827  0.62311408  0.75810440    -0.49330
C126        C  0.08054414  0.70226217  0.61468399     0.72690
O127        O  0.07412023  0.72511018  0.65012545    -0.44190
C128        C  0.16600007  0.61472062  0.68150502     0.77400
O129        O  0.07335027  0.72265062  0.74290306    -0.56050
O130        O  0.12646191  0.60172573  0.67188944    -0.46140
O131        O  0.14391357  0.71318593  0.72781728    -0.52480
C132        C  0.04428490  0.61137747  0.74700508     0.87580
O133        O  0.08638174  0.66055669  0.62153920    -0.54370
O134        O  0.16931444  0.65468491  0.69631303    -0.57670
C135        C  0.50357927  0.87809083  0.17609819     0.05570
C136        C  0.46293879  0.89409133  0.19566584    -0.10580
C137        C  0.45055093  0.88028889  0.23974534     0.03070
C138        C  0.47833727  0.84990111  0.26340166    -0.09100
C139        C  0.51739700  0.83188369  0.24379397     0.05570
C140        C  0.53061593  0.84681581  0.20027531    -0.08520
H141        H  0.44094316  0.91661008  0.17661349     0.11160
H142        H  0.46815477  0.83821616  0.29680265     0.08690
H143        H  0.56136879  0.83365976  0.18495019     0.08540
C144        C  0.68040134  0.96293520  0.08533637     0.05570
C145        C  0.70421490  0.93551665  0.11657772    -0.10580
C146        C  0.74756629  0.94853147  0.13212256     0.03070
C147        C  0.76738713  0.98775559  0.11475577    -0.09100
C148        C  0.74410106  0.01593248  0.08446186     0.05570
C149        C  0.70017660  0.00374258  0.07001255    -0.08520
H150        H  0.68872726  0.90464602  0.12925216     0.11160
H151        H  0.80067403  0.99773567  0.12690262     0.08690
H152        H  0.68139302  0.02601388  0.04753883     0.08540
C153        C  0.58978938  0.78611141  0.99998857     0.05570
C154        C  0.57418220  0.76617636  0.95936158    -0.10580
C155        C  0.58836746  0.72212681  0.94734503     0.03070
C156        C  0.61869682  0.69886154  0.97550754    -0.09100
C157        C  0.63632077  0.71881758  0.01456627     0.05570
C158        C  0.62104791  0.76231961  0.02739916    -0.08520
H159        H  0.55166980  0.78492447  0.93709718     0.11160
H160        H  0.63063161  0.66546469  0.96565014     0.08690
H161        H  0.63389725  0.77791083  0.05815299     0.08540
C162        C  0.55419874  0.91262030  0.04964337    -0.00040
In163      In  0.82369667  0.87221001  0.22230892     1.36870
C164        C  0.76944271  0.85446718  0.29008474     0.80030
O165        O  0.80854366  0.93712041  0.18568147    -0.58420
O166        O  0.76248818  0.88242821  0.17759346    -0.49330
C167        C  0.90507719  0.88714582  0.25785168     0.72690
O168        O  0.86970775  0.89139870  0.28128130    -0.44190
C169        C  0.83982676  0.80042607  0.17171954     0.77400
O170        O  0.77706932  0.89493847  0.27796014    -0.56050
O171        O  0.84880145  0.83988330  0.15809461    -0.46140
O172        O  0.79057324  0.82402316  0.26868219    -0.52480
C173        C  0.77321678  0.92211209  0.16628592     0.87580
O174        O  0.89804709  0.88313860  0.21594094    -0.54370
O175        O  0.82485600  0.79754585  0.21166347    -0.57670
In176      In  0.59343890  0.74207935  0.32070530     1.36870
C177        C  0.54356888  0.79778897  0.26979909     0.80030
O178        O  0.64222597  0.69567938  0.28849998    -0.58420
O179        O  0.57152641  0.68618757  0.27400222    -0.49330
C180        C  0.66487592  0.79329308  0.33631416     0.72690
O181        O  0.62535473  0.80661800  0.34551235    -0.44190
C182        C  0.57878135  0.70629665  0.40207443     0.77400
O183        O  0.58307503  0.78595973  0.25898368    -0.56050
O184        O  0.57329641  0.68325926  0.36660522    -0.46140
O185        O  0.52859511  0.77900532  0.30548341    -0.52480
C186        C  0.61213916  0.67414148  0.26700062     0.87580
O187        O  0.66799762  0.75333545  0.32145844    -0.54370
O188        O  0.58368971  0.74813062  0.39524347    -0.57670
In189      In  0.72578980  0.64254993  0.09157892     1.36870
C190        C  0.79401003  0.69594281  0.11018599     0.80030
O191        O  0.68918293  0.65732447  0.02651525    -0.58420
O192        O  0.68199897  0.70424828  0.08060052    -0.49330
C193        C  0.76111475  0.56097728  0.07723334     0.72690
O194        O  0.78422165  0.59629978  0.07117488    -0.44190
C195        C  0.67431989  0.62761865  0.16297960     0.77400
O196        O  0.78181861  0.68904192  0.06959627    -0.56050
O197        O  0.66112791  0.61811036  0.12347781    -0.46140
O198        O  0.77249637  0.67446497  0.14030645    -0.52480
C199        C  0.67033414  0.69310931  0.04112428     0.87580
O200        O  0.71938671  0.56800064  0.08269962    -0.54370
O201        O  0.71426914  0.64251095  0.16612670    -0.57670
C202        C  0.93574601  0.12172534  0.49942051     0.05570
C203        C  0.95180264  0.14131246  0.45880906    -0.10580
C204        C  0.93778416  0.18526358  0.44628262     0.03070
C205        C  0.90710896  0.20877462  0.47388314    -0.09100
C206        C  0.88905652  0.18915798  0.51292590     0.05570
C207        C  0.90420326  0.14576247  0.52629289    -0.08520
H208        H  0.97454973  0.12237490  0.43694578     0.11160
H209        H  0.89527263  0.24207550  0.46358579     0.08690
H210        H  0.89102527  0.13043063  0.55703765     0.08540
C211        C  0.84436116  0.94536232  0.58505271     0.05570
C212        C  0.82486138  0.90441648  0.56975768    -0.10580
C213        C  0.78083057  0.89217143  0.58383246     0.03070
C214        C  0.75710947  0.92050887  0.61364919    -0.09100
C215        C  0.77663337  0.95988565  0.63099516     0.05570
C216        C  0.82013928  0.97289960  0.61587151    -0.08520
H217        H  0.84396057  0.88205712  0.54763973     0.11160
H218        H  0.72371331  0.91053648  0.62549413     0.08690
H219        H  0.83542146  0.00387481  0.62853964     0.08540
C220        C  0.02087453  0.03100398  0.67648880     0.05570
C221        C  0.99339232  0.06229984  0.70013602    -0.10580
C222        C  0.00618001  0.07783252  0.74356241     0.03070
C223        C  0.04527484  0.06042091  0.76362079    -0.09100
C224        C  0.07352843  0.03004417  0.74051655     0.05570
C225        C  0.06154035  0.01559213  0.69651521    -0.08520
H226        H  0.96262358  0.07500950  0.68446748     0.11160
H227        H  0.05507482  0.07256421  0.79696943     0.08690
H228        H  0.08385523  0.99304868  0.67786951     0.08540
C229        C  0.97088284  0.99545741  0.55007973    -0.00040
In230      In  0.92917745  0.16787621  0.81918614     1.36870
C231        C  0.91112091  0.23556515  0.76493867     0.80030
O232        O  0.99424105  0.13122581  0.80460410    -0.58420
O233        O  0.94003332  0.12340371  0.75792310    -0.49330
C234        C  0.94365214  0.20349862  0.90064878     0.72690
O235        O  0.94876775  0.22672089  0.86524718    -0.44190
C236        C  0.85743541  0.11706296  0.83468112     0.77400
O237        O  0.95164828  0.22358533  0.77250435    -0.56050
O238        O  0.89688801  0.10345225  0.84373331    -0.46140
O239        O  0.88078682  0.21407552  0.78612723    -0.52480
C240        C  0.97957784  0.11197754  0.76904793     0.87580
O241        O  0.93897578  0.16166426  0.89368460    -0.54370
O242        O  0.85453541  0.15708373  0.81996107    -0.57670
In243      In  0.79880081  0.26588800  0.58867823     1.36870
C244        C  0.73080883  0.21202023  0.60667981     0.80030
O245        O  0.83580529  0.25059244  0.52384913    -0.58420
O246        O  0.84298917  0.20436268  0.57852348    -0.49330
C247        C  0.76324786  0.34742813  0.57443709     0.72690
O248        O  0.73997993  0.31207472  0.56925259    -0.44190
C249        C  0.84975440  0.28148026  0.66030222     0.77400
O250        O  0.74290859  0.21945684  0.56614529    -0.56050
O251        O  0.86307083  0.29100551  0.62085011    -0.46140
O252        O  0.75229740  0.23320690  0.63703204    -0.52480
C253        C  0.85477401  0.21507164  0.53896853     0.87580
O254        O  0.80511029  0.34040574  0.57883757    -0.54370
O255        O  0.80991829  0.26625638  0.66327682    -0.57670
In256      In  0.69971177  0.03667669  0.72016227     1.36870
C257        C  0.75311256  0.05544441  0.78832744     0.80030
O258        O  0.71475497  0.97172761  0.68347196    -0.58420
O259        O  0.76151301  0.02595328  0.67642486    -0.49330
C260        C  0.61838873  0.02212036  0.75611836     0.72690
O261        O  0.65391135  0.01607370  0.77892317    -0.44190
C262        C  0.68446679  0.10787775  0.66852155     0.77400
O263        O  0.74640101  0.01485959  0.77606454    -0.56050
O264        O  0.67473702  0.06836234  0.65555602    -0.46140
O265        O  0.73146046  0.08549709  0.76689065    -0.52480
C266        C  0.75057698  0.98643875  0.66475684     0.87580
O267        O  0.62508500  0.02764976  0.71432661    -0.54370
O268        O  0.69969756  0.11113215  0.70834640    -0.57670
C269        C  0.43550834  0.12066104  0.01869034     0.05570
C270        C  0.45142990  0.13998970  0.05947849    -0.10580
C271        C  0.43724102  0.18379901  0.07229551     0.03070
C272        C  0.40648510  0.20738960  0.04484874    -0.09100
C273        C  0.38859593  0.18801101  0.00561588     0.05570
C274        C  0.40393211  0.14478155  0.99194905    -0.08520
H275        H  0.47424981  0.12099355  0.08121204     0.11160
H276        H  0.39451378  0.24057314  0.05537368     0.08690
H277        H  0.39089478  0.12964550  0.96104648     0.08540
C278        C  0.34504779  0.94463276  0.93125100     0.05570
C279        C  0.32068374  0.97215068  0.90051552    -0.10580
C280        C  0.27720166  0.95899958  0.88538886     0.03070
C281        C  0.25786927  0.91947297  0.90264395    -0.09100
C282        C  0.28173245  0.89122712  0.93242499     0.05570
C283        C  0.32573117  0.90358243  0.94644623    -0.08520
H284        H  0.33580975  0.00324882  0.88796555     0.11160
H285        H  0.22451208  0.90933057  0.89082466     0.08690
H286        H  0.34490701  0.88126714  0.96854307     0.08540
C287        C  0.52102483  0.03137752  0.84071077     0.05570
C288        C  0.56162267  0.01597877  0.82057152    -0.10580
C289        C  0.57355548  0.03055059  0.77660771     0.03070
C290        C  0.54530483  0.06102623  0.75362713    -0.09100
C291        C  0.50625238  0.07840983  0.77380525     0.05570
C292        C  0.49352721  0.06276164  0.81720947    -0.08520
H293        H  0.58394428  0.99335652  0.83911424     0.11160
H294        H  0.55507754  0.07326441  0.72030647     0.08690
H295        H  0.46279864  0.07545067  0.83297598     0.08540
C296        C  0.47125837  0.99503604  0.96694628    -0.00040
In297      In  0.19967146  0.03623945  0.79706025     1.36870
C298        C  0.25296469  0.05616647  0.72912032     0.80030
O299        O  0.19851465  0.11064178  0.80927026    -0.58420
O300        O  0.17551400  0.06715714  0.86235942    -0.49330
C301        C  0.11838144  0.02159661  0.76099626     0.72690
O302        O  0.15393035  0.01564108  0.73820383    -0.44190
C303        C  0.25093077  0.98566537  0.85185987     0.77400
O304        O  0.24616494  0.01537705  0.74062250    -0.56050
O305        O  0.26182170  0.02520502  0.84023313    -0.46140
O306        O  0.23149252  0.08586247  0.75121895    -0.52480
C307        C  0.18425829  0.10691038  0.84941183     0.87580
O308        O  0.12505706  0.02705026  0.80280478    -0.54370
O309        O  0.21494571  0.97107061  0.83336373    -0.57670
In310      In  0.42911652  0.16880918  0.69876344     1.36870
C311        C  0.41120990  0.23598665  0.75370611     0.80030
O312        O  0.35439355  0.15848312  0.69718699    -0.58420
O313        O  0.39671896  0.10432528  0.67459290    -0.49330
C314        C  0.44333810  0.20470400  0.61742121     0.72690
O315        O  0.44838413  0.22786922  0.65287284    -0.44190
C316        C  0.47961997  0.11266085  0.74850053     0.77400
O317        O  0.45174341  0.22445872  0.74549203    -0.56050
O318        O  0.44011154  0.12407018  0.75977609    -0.46140
O319        O  0.38079833  0.21431876  0.73282143    -0.52480
C320        C  0.35723871  0.11827086  0.68298655     0.87580
O321        O  0.43894837  0.16281868  0.62426187    -0.54370
O322        O  0.49420736  0.13203533  0.71298003    -0.57670
In323      In  0.29846335  0.26490181  0.92992940     1.36870
C324        C  0.23071067  0.21080668  0.91170197     0.80030
O325        O  0.30998101  0.26554865  0.85539286    -0.58420
O326        O  0.36277524  0.29046285  0.89816518    -0.49330
C327        C  0.26256842  0.34631368  0.94398156     0.72690
O328        O  0.23929408  0.31090393  0.94870457    -0.44190
C329        C  0.35435224  0.21400447  0.97961600     0.77400
O330        O  0.24252108  0.21844039  0.95228855    -0.56050
O331        O  0.34277507  0.20349407  0.93994850    -0.46140
O332        O  0.25238223  0.23189057  0.88140168    -0.52480
C333        C  0.34971643  0.28098902  0.85861588     0.87580
O334        O  0.30451628  0.33939600  0.94024910    -0.54370
O335        O  0.33522271  0.24938755  0.99486800    -0.57670
C336        C  0.17961519  0.96408982  0.43200819     0.05570
C337        C  0.19886167  0.00497654  0.44771442    -0.10580
C338        C  0.24273852  0.01767957  0.43364478     0.03070
C339        C  0.26651035  0.98999943  0.40325072    -0.09100
C340        C  0.24720913  0.95066878  0.38552750     0.05570
C341        C  0.20389248  0.93711886  0.40074096    -0.08520
H342        H  0.17973303  0.02689410  0.47024905     0.11160
H343        H  0.29975300  0.00044211  0.39136458     0.08690
H344        H  0.18880153  0.90615492  0.38781861     0.08540
C345        C  0.00357444  0.87757635  0.34093084     0.05570
C346        C  0.96259541  0.89288059  0.32155719    -0.10580
C347        C  0.95024368  0.87886716  0.27755175     0.03070
C348        C  0.97843296  0.84899754  0.25372992    -0.09100
C349        C  0.01787278  0.83162171  0.27314686     0.05570
C350        C  0.03103171  0.84675191  0.31662688    -0.08520
H351        H  0.94030362  0.91501771  0.34071637     0.11160
H352        H  0.96827775  0.83716096  0.22037523     0.08690
H353        H  0.06205229  0.83408663  0.33182500     0.08540
C354        C  0.08963349  0.78658303  0.51705704     0.05570
C355        C  0.07436402  0.76658212  0.55777717    -0.10580
C356        C  0.08889396  0.72263392  0.56976088     0.03070
C357        C  0.11918218  0.69951718  0.54140523    -0.09100
C358        C  0.13643070  0.71954406  0.50220464     0.05570
C359        C  0.12083567  0.76294758  0.48945586    -0.08520
H360        H  0.05188219  0.78522794  0.58015894     0.11160
H361        H  0.13138523  0.66620083  0.55119635     0.08690
H362        H  0.13343799  0.77861416  0.45863770     0.08540
C363        C  0.05366715  0.91290193  0.46735410    -0.00040
In364      In  0.09461275  0.74249589  0.19605298     1.36870
C365        C  0.11416721  0.67387663  0.24856450     0.80030
O366        O  0.16892318  0.75494546  0.19808944    -0.58420
O367        O  0.12667651  0.80664338  0.17021162    -0.49330
C368        C  0.07955046  0.70682413  0.11468679     0.72690
O369        O  0.07305501  0.68407075  0.15017500    -0.44190
C370        C  0.04437768  0.79786054  0.24703234     0.77400
O371        O  0.14366652  0.69431911  0.22525998    -0.56050
O372        O  0.08393983  0.78624947  0.25786255    -0.46140
O373        O  0.07364304  0.68722535  0.24380841    -0.52480
C374        C  0.16593800  0.79426297  0.18161129     0.87580
O375        O  0.08573924  0.74849556  0.12147759    -0.54370
O376        O  0.02958908  0.77908371  0.21127425    -0.57670
In377      In  0.22676229  0.64430911  0.42508015     1.36870
C378        C  0.29438631  0.69892799  0.40784194     0.80030
O379        O  0.21658256  0.64320317  0.35029407    -0.58420
O380        O  0.16260655  0.61970896  0.39238215    -0.49330
C381        C  0.26238678  0.56284304  0.43923194     0.72690
O382        O  0.28565314  0.59821104  0.44429950    -0.44190
C383        C  0.17056806  0.69412418  0.47551374     0.77400
O384        O  0.28265439  0.69046302  0.44827314    -0.56050
O385        O  0.18198929  0.70533694  0.43598118    -0.46140
O386        O  0.27263071  0.67850135  0.37717054    -0.52480
C387        C  0.17654365  0.62846490  0.35296933     0.87580
O388        O  0.22052681  0.56980832  0.43477246    -0.54370
O389        O  0.18987984  0.65858963  0.49011294    -0.57670
In390      In  0.32431932  0.87484186  0.29571258     1.36870
C391        C  0.27007199  0.85640733  0.22811251     0.80030
O392        O  0.32560180  0.80031484  0.30703615    -0.58420
O393        O  0.34941294  0.84315994  0.36027552    -0.49330
C394        C  0.40561128  0.88929864  0.25971120     0.72690
O395        O  0.37014042  0.89386130  0.23649119    -0.44190
C396        C  0.27332071  0.92455495  0.35146475     0.77400
O397        O  0.27763126  0.89700224  0.23988121    -0.56050
O398        O  0.26283001  0.88487892  0.33993863    -0.46140
O399        O  0.29130885  0.82619089  0.24973990    -0.52480
C400        C  0.34044797  0.80357558  0.34700095     0.87580
O401        O  0.39877976  0.88548696  0.30167923    -0.54370
O402        O  0.30876518  0.93975566  0.33240275    -0.57670
C403        C  0.02234111  0.37685219  0.17508054     0.05570
C404        C  0.06323040  0.39254178  0.19434596    -0.10580
C405        C  0.07592458  0.37843931  0.23822179     0.03070
C406        C  0.04825692  0.34800470  0.26194910    -0.09100
C407        C  0.00890575  0.33033218  0.24263415     0.05570
C408        C  0.99536332  0.34557805  0.19932470    -0.08520
H409        H  0.08512604  0.41512830  0.17525767     0.11160
H410        H  0.05869072  0.33610596  0.29519755     0.08690
H411        H  0.96436882  0.33271874  0.18423596     0.08540
C412        C  0.93454041  0.28684643  0.99902838     0.05570
C413        C  0.94963972  0.26735702  0.95801331    -0.10580
C414        C  0.93537289  0.22341943  0.94574633     0.03070
C415        C  0.90546489  0.19979375  0.97406727    -0.09100
C416        C  0.88835090  0.21929976  0.01358808     0.05570
C417        C  0.90369791  0.26272206  0.02662643    -0.08520
H418        H  0.97185110  0.28635600  0.93565938     0.11160
H419        H  0.89347604  0.16647473  0.96401752     0.08690
H420        H  0.89125518  0.27798114  0.05771369     0.08540
C421        C  0.84477899  0.46292526  0.08637706     0.05570
C422        C  0.82499788  0.50369361  0.07104052    -0.10580
C423        C  0.78119367  0.51599829  0.08569074     0.03070
C424        C  0.75799739  0.48794852  0.11619477    -0.09100
C425        C  0.77782604  0.44868948  0.13349913     0.05570
C426        C  0.82108889  0.43559631  0.11777225    -0.08520
H427        H  0.84369804  0.52586064  0.04839119     0.11160
H428        H  0.72479256  0.49801888  0.12849130     0.08690
H429        H  0.83659624  0.40471724  0.13039894     0.08540
C430        C  0.97066987  0.41281517  0.04951556    -0.00040
In431      In  0.79999629  0.14221555  0.09119414     1.36870
C432        C  0.73241373  0.19593629  0.11119891     0.80030
O433        O  0.81113049  0.13905596  0.16578160    -0.58420
O434        O  0.86563582  0.11949855  0.12238425    -0.49330
C435        C  0.76428129  0.06091711  0.07617269     0.72690
O436        O  0.74124608  0.09638215  0.07072565    -0.44190
C437        C  0.85477926  0.19323885  0.04039485     0.77400
O438        O  0.74320114  0.18832771  0.07034608    -0.56050
O439        O  0.84317159  0.20432225  0.07990877    -0.46140
O440        O  0.75510706  0.17515751  0.14092453    -0.52480
C441        C  0.85181758  0.12644780  0.16220858     0.87580
O442        O  0.80609227  0.06774897  0.08134238    -0.54370
O443        O  0.83624867  0.15722087  0.02595698    -0.57670
In444      In  0.70229354  0.37202894  0.22389749     1.36870
C445        C  0.75713306  0.35450753  0.29125604     0.80030
O446        O  0.70096154  0.29732637  0.21351444    -0.58420
O447        O  0.67778886  0.33962291  0.15955520    -0.49330
C448        C  0.62083672  0.38605251  0.25953533     0.72690
O449        O  0.65618572  0.39084185  0.28290394    -0.44190
C450        C  0.75231752  0.42222215  0.16773224     0.77400
O451        O  0.74876410  0.39498347  0.27964242    -0.56050
O452        O  0.76328881  0.38261677  0.17907540    -0.46140
O453        O  0.73641068  0.32396514  0.26960803    -0.52480
C454        C  0.68644521  0.30016884  0.17339692     0.87580
O455        O  0.62783133  0.38208712  0.21761866    -0.54370
O456        O  0.71692705  0.43705843  0.18715842    -0.57670
In457      In  0.93270041  0.24110643  0.31999518     1.36870
C458        C  0.91376403  0.17321757  0.26629588     0.80030
O459        O  0.85827341  0.25314913  0.32096081    -0.58420
O460        O  0.90152235  0.30576903  0.34540618    -0.49330
C461        C  0.94694337  0.20522395  0.40137183     0.72690
O462        O  0.95180608  0.18201286  0.36593023    -0.44190
C463        C  0.98267818  0.29640644  0.26879081     0.77400
O464        O  0.95443687  0.18482196  0.27369571    -0.56050
O465        O  0.94297668  0.28496864  0.25828619    -0.46140
O466        O  0.88369048  0.19519823  0.28738500    -0.52480
C467        C  0.86184263  0.29292931  0.33620918     0.87580
O468        O  0.94297130  0.24715064  0.39450147    -0.54370
O469        O  0.99777801  0.27743381  0.30432617    -0.57670
C470        C  0.43393598  0.28800094  0.51904613     0.05570
C471        C  0.40272029  0.26406230  0.49173393    -0.10580
C472        C  0.38709715  0.22083136  0.50501645     0.03070
C473        C  0.40431594  0.20128675  0.54446296    -0.09100
C474        C  0.43471139  0.22469795  0.57244110     0.05650
C475        C  0.44921730  0.26849574  0.55998108    -0.08520
H476        H  0.39019763  0.27932646  0.46068229     0.11160
H477        H  0.39213031  0.16808693  0.55467756     0.08690
H478        H  0.47179124  0.28734938  0.58209499     0.08540
C479        C  0.34548006  0.46430736  0.43038243     0.05570
C480        C  0.32599418  0.50530275  0.44546823    -0.10580
C481        C  0.28227731  0.51780715  0.43075661     0.03070
C482        C  0.25890735  0.48979745  0.40035096    -0.09100
C483        C  0.27843969  0.45025877  0.38333193     0.05570
C484        C  0.32159851  0.43695113  0.39916187    -0.08520
H485        H  0.34481320  0.52744190  0.46804736     0.11160
H486        H  0.22577713  0.50005338  0.38800222     0.08690
H487        H  0.33686225  0.40584987  0.38678187     0.08540
C488        C  0.52223707  0.37617521  0.34243700     0.05570
C489        C  0.56312333  0.39167107  0.32304459    -0.10580
C490        C  0.57582997  0.37717297  0.27931100     0.03070
C491        C  0.54815424  0.34654291  0.25583206    -0.09100
C492        C  0.50874208  0.32911603  0.27527148     0.05570
C493        C  0.49521266  0.34474698  0.31845033    -0.08520
H494        H  0.58502361  0.41441421  0.34194367     0.11160
H495        H  0.55859292  0.33435073  0.22269183     0.08690
H496        H  0.46419324  0.33206858  0.33364042     0.08540
C497        C  0.47084338  0.41333305  0.46773542    -0.00040
In498      In  0.29815240  0.14405600  0.42796641     1.36870
C499        C  0.23062343  0.19801887  0.40856589     0.80030
O500        O  0.33383720  0.15962026  0.49337885    -0.58420
O501        O  0.34237104  0.20546333  0.43855378    -0.49330
C502        C  0.26239711  0.06274079  0.44249927     0.72690
O503        O  0.23897687  0.09811816  0.44670739    -0.44190
C504        C  0.35011554  0.12766192  0.35719404     0.77400
O505        O  0.24205048  0.19077160  0.44932364    -0.56050
O506        O  0.36295773  0.11879698  0.39695360    -0.46140
O507        O  0.25254073  0.17661619  0.37867681    -0.52480
C508        C  0.35325836  0.19495387  0.47842298     0.87580
O509        O  0.30434107  0.06972203  0.43891223    -0.54370
O510        O  0.31027184  0.14270301  0.35350059    -0.57670
In511      In  0.43222219  0.23954150  0.19859560     1.36870
C512        C  0.41308299  0.17220085  0.25289422     0.80030
O513        O  0.49748243  0.27566630  0.21406925    -0.58420
O514        O  0.44260720  0.28395689  0.25989132    -0.49330
C515        C  0.44644341  0.20359699  0.11726069     0.72690
O516        O  0.45096793  0.18029494  0.15269248    -0.44190
C517        C  0.36120953  0.29115098  0.18229512     0.77400
O518        O  0.45380246  0.18366262  0.24551351    -0.56050
O519        O  0.40087510  0.30414253  0.17326003    -0.46140
O520        O  0.38312933  0.19393894  0.23141194    -0.52480
C521        C  0.48240233  0.29506845  0.24938034     0.87580
O522        O  0.44282014  0.24554909  0.12415818    -0.54370
O523        O  0.35773197  0.25132944  0.19743283    -0.57670
In524      In  0.20214094  0.37306492  0.29404797     1.36870
C525        C  0.25669948  0.35380300  0.22692657     0.80030
O526        O  0.21740385  0.43850200  0.32984773    -0.58420
O527        O  0.26328445  0.38376082  0.33860970    -0.49330
C528        C  0.12092235  0.38740682  0.25798739     0.72690
O529        O  0.15637166  0.39157621  0.23465407    -0.44190
C530        C  0.18563462  0.30215322  0.34574089     0.77400
O531        O  0.24905113  0.39454096  0.23811465    -0.56050
O532        O  0.17707103  0.34188124  0.35884531    -0.46140
O533        O  0.23540133  0.32386531  0.24886159    -0.52480
C534        C  0.25268162  0.42361128  0.34943161     0.87580
O535        O  0.12777569  0.38397053  0.29997638    -0.54370
O536        O  0.20039424  0.29857518  0.30577423    -0.57670
C537        C  0.29067184  0.34096614  0.19509413    -0.10830
C538        C  0.32311215  0.32082365  0.18111679    -0.12390
C539        C  0.18445854  0.26407680  0.37543887    -0.10830
C540        C  0.19856773  0.23172990  0.39563189    -0.12390
C541        C  0.40022882  0.14033392  0.28682574    -0.10830
C542        C  0.37996215  0.12640275  0.31921701    -0.12390
C543        C  0.50821742  0.39153268  0.38722311    -0.10830
C544        C  0.49367929  0.40280814  0.42416441    -0.12390
C545        C  0.42723290  0.43608391  0.45722734    -0.10830
C546        C  0.39027157  0.45050997  0.44589918    -0.12390
C547        C  0.44927707  0.33283975  0.50522278    -0.10830
C548        C  0.46045951  0.36979632  0.49068002    -0.12390
C549        C  0.79126451  0.34256839  0.32326202    -0.10830
C550        C  0.82381976  0.32270108  0.33736056    -0.12390
C551        C  0.88131907  0.12608111  0.20047123    -0.10830
C552        C  0.90115464  0.14079537  0.23278630    -0.12390
C553        C  0.70011022  0.22932812  0.12429605    -0.10830
C554        C  0.68568234  0.26164805  0.14429024    -0.12390
C555        C  0.88972693  0.44940751  0.07103608    -0.10830
C556        C  0.92684544  0.43524474  0.05986932    -0.12390
C557        C  0.94963614  0.33188232  0.01258115    -0.10830
C558        C  0.96063183  0.36902716  0.02683273    -0.12390
C559        C  0.99358508  0.40274286  0.09316760    -0.10830
C560        C  0.00824598  0.39183065  0.13017712    -0.12390
C561        C  0.34124456  0.76534007  0.37650704    -0.10830
C562        C  0.32672443  0.73281670  0.39611885    -0.12390
C563        C  0.20396761  0.82406210  0.18131480    -0.10830
C564        C  0.23628024  0.84398752  0.19590669    -0.12390
C565        C  0.12754799  0.64162807  0.28190110    -0.10830
C566        C  0.14760932  0.62746391  0.31430551    -0.12390
C567        C  0.07448260  0.83170559  0.50384750    -0.10830
C568        C  0.06359284  0.86895570  0.48978627    -0.12390
C569        C  0.01713707  0.89234048  0.38608632    -0.10830
C570        C  0.03126099  0.90308894  0.42336248    -0.12390
C571        C  0.13464103  0.95007641  0.44685961    -0.10830
C572        C  0.09752074  0.93557708  0.45760814    -0.12390
C573        C  0.37924740  0.28205112  0.82039637    -0.10830
C574        C  0.39908033  0.26793323  0.78782223    -0.12390
C575        C  0.19840674  0.17708652  0.89936569    -0.10830
C576        C  0.18381179  0.14482519  0.87936127    -0.12390
C577        C  0.31867053  0.08922152  0.68230289    -0.10830
C578        C  0.28631868  0.06930522  0.69677659    -0.12390
C579        C  0.49371656  0.00516467  0.92304381    -0.10830
C580        C  0.50781141  0.01614557  0.88582034    -0.12390
C581        C  0.39015456  0.95827005  0.94612229    -0.10830
C582        C  0.42736163  0.97248845  0.95699383    -0.12390
C583        C  0.46134380  0.03877732  0.98978029    -0.10830
C584        C  0.45050376  0.07579193  0.00448470    -0.12390
C585        C  0.69845380  0.17833311  0.61893731    -0.10830
C586        C  0.68391463  0.14598853  0.63883651    -0.12390
C587        C  0.81898488  0.08785429  0.83530032    -0.10830
C588        C  0.78658715  0.06806974  0.82074940    -0.12390
C589        C  0.89887757  0.26779400  0.73113520    -0.10830
C590        C  0.87911234  0.28220943  0.69865483    -0.12390
C591        C  0.02422489  0.94212311  0.49671633    -0.10830
C592        C  0.00020903  0.96610211  0.52073402    -0.12390
C593        C  0.00756075  0.01591197  0.63134554    -0.10830
C594        C  0.99335936  0.00515977  0.59408627    -0.12390
C595        C  0.88956922  0.95883975  0.57035187    -0.10830
C596        C  0.92686875  0.97302298  0.55975983    -0.12390
C597        C  0.96119544  0.03943830  0.52758486    -0.10830
C598        C  0.95051956  0.07665005  0.51324298    -0.12390
C599        C  0.62476354  0.64179081  0.23345039    -0.10830
C600        C  0.64475292  0.62720760  0.20117981    -0.12390
C601        C  0.82639585  0.72947116  0.12275034    -0.10830
C602        C  0.84077264  0.76193558  0.14255734    -0.12390
C603        C  0.73564570  0.84240038  0.32239990    -0.10830
C604        C  0.70317019  0.82272193  0.33693886    -0.12390
C605        C  0.52482749  0.94176552  0.02013801    -0.10830
C606        C  0.50071345  0.96565014  0.99612741    -0.12390
C607        C  0.57484994  0.83127935  0.01331529    -0.10830
C608        C  0.56405085  0.86856305  0.02737383    -0.12390
C609        C  0.63533035  0.94945929  0.07021471    -0.10830
C610        C  0.59812366  0.93520900  0.05938339    -0.12390
C611        C  0.51728580  0.89261295  0.13090025    -0.10830
C612        C  0.53164059  0.90306982  0.09362495    -0.12390
C613        C  0.23626170  0.56497641  0.69603390    -0.10830
C614        C  0.20405274  0.58496192  0.68130871    -0.12390
C615        C  0.12685601  0.76705916  0.78303579    -0.10830
C616        C  0.14674062  0.78143522  0.81546343    -0.12390
C617        C  0.32597334  0.67614195  0.89675409    -0.10830
C618        C  0.34031695  0.64357680  0.87708369    -0.12390
C619        C  0.02368036  0.46657130  0.99629948    -0.10830
C620        C  0.99974667  0.44237511  0.02016163    -0.12390
C621        C  0.03100083  0.50577103  0.92308194    -0.10830
C622        C  0.01691979  0.51656303  0.88579449    -0.12390
C623        C  0.07367653  0.57711507  0.00394804    -0.10830
C624        C  0.06294050  0.53985098  0.98977134    -0.12390
C625        C  0.09712301  0.47324354  0.95769673    -0.10830
C626        C  0.13427859  0.45859905  0.94726710    -0.12390
C627        C  0.73603707  0.56492053  0.82212725    -0.10830
C628        C  0.70366155  0.58448694  0.83705019    -0.12390
C629        C  0.82656331  0.67872161  0.62180805    -0.10830
C630        C  0.84066309  0.64624153  0.64179724    -0.12390
C631        C  0.64549732  0.77976513  0.70086727    -0.10830
C632        C  0.62568461  0.76515346  0.73323961    -0.12390
C633        C  0.52412257  0.46678042  0.52091660    -0.10830
C634        C  0.50013433  0.44274728  0.49697247    -0.12390
C635        C  0.51666254  0.51594427  0.63159422    -0.10830
C636        C  0.53097967  0.50557894  0.59428473    -0.12390
C637        C  0.59744385  0.47362433  0.55980351    -0.10830
C638        C  0.63469928  0.45929707  0.57031424    -0.12390
C639        C  0.57371369  0.57733067  0.51354063    -0.10830
C640        C  0.56303355  0.54010820  0.52783243    -0.12390
loop_ 
_geom_bond_atom_site_label_1 
_geom_bond_atom_site_label_2 
_geom_bond_distance 
_geom_bond_site_symmetry_2 
_ccdc_geom_bond_type 
C1            C2   1.410       .  A
C1            C6   1.411       .  A
C1          C639   1.455       .  S
C2            C3   1.409       .  A
C2            H7   1.084       .  S
C3            C4   1.399       .  A
C3          C182   1.473       .  S
C4            C5   1.392       .  A
C4            H8   1.084       .  S
C5            C6   1.410       .  A
C5           C35   1.480       .  S
C6            H9   1.084       .  S
C10          C11   1.410       .  A
C10          C15   1.411       .  A
C10         C638   1.455       .  S
C11          C12   1.408       .  A
C11          H16   1.084       .  S
C12          C13   1.399       .  A
C12         C247   1.473       .  S
C13          C14   1.393       .  A
C13          H17   1.084       .  S
C14          C15   1.410       .  A
C14          C61   1.480       .  S
C15          H18   1.084       .  S
C19          C20   1.410       .  A
C19          C24   1.410       .  A
C19         C635   1.455       .  S
C20          C21   1.409       .  A
C20          H25   1.084       .  S
C21          C22   1.399       .  A
C21         C113   1.473       .  S
C22          C23   1.392       .  A
C22          H26   1.084       .  S
C23          C24   1.410       .  A
C23          C48   1.480       .  S
C24          H27   1.084       .  S
C28         C633   1.496       .  S
C28         C636   1.482       .  S
C28         C637   1.482       .  S
C28         C640   1.483       .  S
In29         O31   2.221       .  S
In29         O32   2.245       .  S
In29         O40   2.218       .  S
In29         O34   2.278       .  S
In29         O36   2.200       .  S
In29         O37   2.252       .  S
In29         O38   2.240       .  S
In29         O41   2.243       .  S
C30         C629   1.422       .  S
C30          O36   1.260       .  A
C30          O38   1.265       .  A
O31          C39   1.259       .  A
O32          C39   1.258       .  A
C33         C213   1.473       .  S
C33          O40   1.257       .  A
C33          O34   1.256       .  A
C35          O37   1.256       .  A
C35          O41   1.267       .  A
C39         C631   1.423       .  S
In42         O44   2.222       .  S
In42         O45   2.244       .  S
In42         O53   2.221       .  S
In42         O47   2.276       .  S
In42         O49   2.241       .  S
In42         O50   2.250       .  S
In42         O51   2.199       .  S
In42         O54   2.244       .  S
C43         C632   1.423       .  S
C43          O49   1.265       .  A
C43          O51   1.261       .  A
O44          C52   1.259       .  A
O45          C52   1.258       .  A
C46         C155   1.473       .  S
C46          O53   1.257       .  A
C46          O47   1.256       .  A
C48          O50   1.256       .  A
C48          O54   1.267       .  A
C52         C628   1.423       .  S
In55         O57   2.223       .  S
In55         O58   2.243       .  S
In55         O66   2.222       .  S
In55         O60   2.275       .  S
In55         O62   2.241       .  S
In55         O63   2.252       .  S
In55         O64   2.199       .  S
In55         O67   2.244       .  S
C56         C627   1.423       .  S
C56          O62   1.265       .  A
C56          O64   1.261       .  A
O57          C65   1.259       .  A
O58          C65   1.258       .  A
C59          C88   1.472       .  S
C59          O66   1.257       .  A
C59          O60   1.256       .  A
C61          O63   1.256       .  A
C61          O67   1.267       .  A
C65         C630   1.423       .  S
C68          C69   1.410       .  A
C68          C73   1.410       .  A
C68         C626   1.455       .  S
C69          C70   1.409       .  A
C69          H74   1.084       .  S
C70          C71   1.399       .  A
C70         C327   1.473       .  S
C71          C72   1.393       .  A
C71          H75   1.085       .  S
C72          C73   1.410       .  A
C72         C119   1.480       .  S
C73          H76   1.084       .  S
C77          C78   1.411   1_554  A
C77          C82   1.411       .  A
C77         C623   1.456       .  S
C78          C79   1.410   1_556  A
C78          H83   1.084       .  S
C79          C80   1.392       .  A
C79         C106   1.480   1_554  S
C80          C81   1.399       .  A
C80          H84   1.084       .  S
C81          C82   1.409       .  A
C81         C368   1.474       .  S
C82          H85   1.084       .  S
C86          C87   1.409   1_455  A
C86          C91   1.411       .  A
C86         C622   1.455       .  S
C87          C88   1.408       .  A
C87          H92   1.084       .  S
C88          C89   1.399       .  A
C89          C90   1.393   1_655  A
C89          H93   1.084       .  S
C90          C91   1.410       .  A
C90         C132   1.480       .  S
C91          H94   1.084       .  S
C95         C619   1.497       .  S
C95         C621   1.483       .  S
C95         C624   1.483       .  S
C95         C625   1.483       .  S
In96         O98   2.240       .  S
In96         O99   2.253       .  S
In96        O107   2.222       .  S
In96        O101   2.275       .  S
In96        O103   2.241       .  S
In96        O104   2.243       .  S
In96        O105   2.198       .  S
In96        O108   2.222       .  S
C97         C617   1.422       .  S
C97         O103   1.265       .  A
C97         O105   1.261       .  A
O98         C106   1.267       .  A
O99         C106   1.256       .  A
C100        C282   1.472       .  S
C100        O107   1.257       .  A
C100        O101   1.256       .  A
C102        C616   1.423       .  S
C102        O104   1.258       .  A
C102        O108   1.259       .  A
In109       O111   2.244       .  S
In109       O112   2.250       .  S
In109       O120   2.222       .  S
In109       O114   2.276       .  S
In109       O116   2.241       .  S
In109       O117   2.244       .  S
In109       O118   2.198       .  S
In109       O121   2.221       .  S
C110        C613   1.423       .  S
C110        O116   1.265       .  A
C110        O118   1.261       .  A
O111        C119   1.267       .  A
O112        C119   1.256       .  A
C113        O120   1.257       .  A
C113        O114   1.256       .  A
C115        C618   1.423       .  S
C115        O117   1.258       .  A
C115        O121   1.259       .  A
In122       O124   2.244       .  S
In122       O125   2.252       .  S
In122       O133   2.220       .  S
In122       O127   2.278       .  S
In122       O129   2.240       .  S
In122       O130   2.243       .  S
In122       O131   2.200       .  S
In122       O134   2.221       .  S
C123        C615   1.422       .  S
C123        O129   1.265       .  A
C123        O131   1.261       .  A
O124        C132   1.267       .  A
O125        C132   1.256       .  A
C126        C356   1.473       .  S
C126        O133   1.257       .  A
C126        O127   1.256       .  A
C128        C614   1.423       .  S
C128        O130   1.258       .  A
C128        O134   1.259       .  A
C135        C136   1.410       .  A
C135        C140   1.411       .  A
C135        C611   1.455       .  S
C136        C137   1.408       .  A
C136        H141   1.084       .  S
C137        C138   1.399       .  A
C137        C394   1.473       .  S
C138        C139   1.393       .  A
C138        H142   1.085       .  S
C139        C140   1.410       .  A
C139        C177   1.480       .  S
C140        H143   1.084       .  S
C144        C145   1.411       .  A
C144        C149   1.410   1_565  A
C144        C609   1.456       .  S
C145        C146   1.410       .  A
C145        H150   1.084       .  S
C146        C147   1.392       .  A
C146        C173   1.480       .  S
C147        C148   1.398   1_565  A
C147        H151   1.084       .  S
C148        C149   1.409       .  A
C148        C435   1.473       .  S
C149        H152   1.084       .  S
C153        C154   1.410       .  A
C153        C158   1.411   1_556  A
C153        C607   1.456   1_556  S
C154        C155   1.409       .  A
C154        H159   1.084       .  S
C155        C156   1.399       .  A
C156        C157   1.392   1_556  A
C156        H160   1.084       .  S
C157        C158   1.410       .  A
C157        C199   1.480       .  S
C158        H161   1.084       .  S
C162        C605   1.497       .  S
C162        C608   1.483       .  S
C162        C610   1.483       .  S
C162        C612   1.483       .  S
In163       O165   2.241       .  S
In163       O166   2.253       .  S
In163       O174   2.222       .  S
In163       O168   2.274       .  S
In163       O170   2.241       .  S
In163       O171   2.243       .  S
In163       O172   2.198       .  S
In163       O175   2.222       .  S
C164        C603   1.422       .  S
C164        O170   1.265       .  A
C164        O172   1.261       .  A
O165        C173   1.267       .  A
O166        C173   1.256       .  A
C167        C347   1.472       .  S
C167        O174   1.257       .  A
C167        O168   1.256       .  A
C169        C602   1.423       .  S
C169        O171   1.258       .  A
C169        O175   1.259       .  A
In176       O178   2.199       .  S
In176       O179   2.241       .  S
In176       O187   2.221       .  S
In176       O181   2.243       .  S
In176       O183   2.251       .  S
In176       O184   2.277       .  S
In176       O185   2.244       .  S
In176       O188   2.221       .  S
C177        O183   1.256       .  A
C177        O185   1.267       .  A
O178        C186   1.261       .  A
O179        C186   1.265       .  A
C180        C604   1.423       .  S
C180        O187   1.259       .  A
C180        O181   1.258       .  A
C182        O184   1.256       .  A
C182        O188   1.257       .  A
C186        C599   1.422       .  S
In189       O191   2.241       .  S
In189       O192   2.252       .  S
In189       O200   2.220       .  S
In189       O194   2.276       .  S
In189       O196   2.240       .  S
In189       O197   2.243       .  S
In189       O198   2.199       .  S
In189       O201   2.222       .  S
C190        C601   1.422       .  S
C190        O196   1.265       .  A
C190        O198   1.261       .  A
O191        C199   1.267       .  A
O192        C199   1.256       .  A
C193        C423   1.472       .  S
C193        O200   1.257       .  A
C193        O194   1.256       .  A
C195        C600   1.423       .  S
C195        O197   1.258       .  A
C195        O201   1.259       .  A
C202        C203   1.410       .  A
C202        C207   1.411       .  A
C202        C598   1.456       .  S
C203        C204   1.408       .  A
C203        H208   1.084       .  S
C204        C205   1.399       .  A
C204        C461   1.472       .  S
C205        C206   1.392       .  A
C205        H209   1.084       .  S
C206        C207   1.410       .  A
C206        C253   1.480       .  S
C207        H210   1.084       .  S
C211        C212   1.410       .  A
C211        C216   1.411       .  A
C211        C595   1.456       .  S
C212        C213   1.409       .  A
C212        H217   1.084       .  S
C213        C214   1.399       .  A
C214        C215   1.392       .  A
C214        H218   1.084       .  S
C215        C216   1.410       .  A
C215        C266   1.480       .  S
C216        H219   1.084   1_565  S
C220        C221   1.411   1_455  A
C220        C225   1.410       .  A
C220        C593   1.456       .  S
C221        C222   1.410   1_655  A
C221        H226   1.084       .  S
C222        C223   1.392       .  A
C222        C240   1.480   1_455  S
C223        C224   1.399       .  A
C223        H227   1.084       .  S
C224        C225   1.409       .  A
C224        C301   1.474       .  S
C225        H228   1.084   1_545  S
C229        C592   1.497   1_655  S
C229        C594   1.483   1_565  S
C229        C596   1.483       .  S
C229        C597   1.483   1_565  S
In230       O232   2.241       .  S
In230       O233   2.253       .  S
In230       O241   2.221       .  S
In230       O235   2.276       .  S
In230       O237   2.241       .  S
In230       O238   2.243       .  S
In230       O239   2.198       .  S
In230       O242   2.222       .  S
C231        C589   1.422       .  S
C231        O237   1.265       .  A
C231        O239   1.260       .  A
O232        C240   1.267       .  A
O233        C240   1.256       .  A
C234        C414   1.472       .  S
C234        O241   1.257       .  A
C234        O235   1.256       .  A
C236        C587   1.423       .  S
C236        O238   1.258       .  A
C236        O242   1.259       .  A
In243       O245   2.244       .  S
In243       O246   2.252       .  S
In243       O254   2.222       .  S
In243       O248   2.276       .  S
In243       O250   2.241       .  S
In243       O251   2.243       .  S
In243       O252   2.198       .  S
In243       O255   2.221       .  S
C244        C585   1.423       .  S
C244        O250   1.265       .  A
C244        O252   1.261       .  A
O245        C253   1.267       .  A
O246        C253   1.256       .  A
C247        O254   1.257       .  A
C247        O248   1.256       .  A
C249        C590   1.423       .  S
C249        O251   1.258       .  A
C249        O255   1.259       .  A
In256       O258   2.242   1_545  S
In256       O259   2.252       .  S
In256       O267   2.221       .  S
In256       O261   2.277       .  S
In256       O263   2.240       .  S
In256       O264   2.243       .  S
In256       O265   2.199       .  S
In256       O268   2.221       .  S
C257        C588   1.422       .  S
C257        O263   1.265       .  A
C257        O265   1.261       .  A
O258        C266   1.267       .  A
O259        C266   1.256   1_545  A
C260        C289   1.473       .  S
C260        O267   1.257       .  A
C260        O261   1.256       .  A
C262        C586   1.423       .  S
C262        O264   1.258       .  A
C262        O268   1.259       .  A
C269        C270   1.410       .  A
C269        C274   1.411   1_554  A
C269        C584   1.455       .  S
C270        C271   1.408       .  A
C270        H275   1.084       .  S
C271        C272   1.399       .  A
C271        C515   1.472       .  S
C272        C273   1.392       .  A
C272        H276   1.085       .  S
C273        C274   1.410   1_554  A
C273        C329   1.480   1_554  S
C274        H277   1.084       .  S
C278        C279   1.411       .  A
C278        C283   1.410       .  A
C278        C581   1.456       .  S
C279        C280   1.410       .  A
C279        H284   1.084   1_565  S
C280        C281   1.392       .  A
C280        C303   1.480       .  S
C281        C282   1.399       .  A
C281        H285   1.084       .  S
C282        C283   1.408       .  A
C283        H286   1.084       .  S
C287        C288   1.410       .  A
C287        C292   1.411       .  A
C287        C580   1.455       .  S
C288        C289   1.409       .  A
C288        H293   1.084   1_545  S
C289        C290   1.399       .  A
C290        C291   1.392       .  A
C290        H294   1.084       .  S
C291        C292   1.410       .  A
C291        C316   1.480       .  S
C292        H295   1.084       .  S
C296        C579   1.483   1_565  S
C296        C582   1.483       .  S
C296        C583   1.483   1_565  S
C296        C606   1.497       .  S
In297       O299   2.222       .  S
In297       O300   2.244       .  S
In297       O308   2.221       .  S
In297       O302   2.278       .  S
In297       O304   2.240       .  S
In297       O305   2.253       .  S
In297       O306   2.200       .  S
In297       O309   2.243   1_545  S
C298        C578   1.422       .  S
C298        O304   1.265       .  A
C298        O306   1.261       .  A
O299        C307   1.259       .  A
O300        C307   1.258       .  A
C301        O308   1.257       .  A
C301        O302   1.256       .  A
C303        O305   1.256   1_565  A
C303        O309   1.267       .  A
C307        C576   1.423       .  S
In310       O312   2.223       .  S
In310       O313   2.242       .  S
In310       O321   2.220       .  S
In310       O315   2.275       .  S
In310       O317   2.242       .  S
In310       O318   2.252       .  S
In310       O319   2.198       .  S
In310       O322   2.242       .  S
C311        C574   1.422       .  S
C311        O317   1.265       .  A
C311        O319   1.260       .  A
O312        C320   1.259       .  A
O313        C320   1.258       .  A
C314        C474   1.472       .  S
C314        O321   1.257       .  A
C314        O315   1.256       .  A
C316        O318   1.256       .  A
C316        O322   1.267       .  A
C320        C577   1.423       .  S
In323       O325   2.221       .  S
In323       O326   2.243       .  S
In323       O334   2.223       .  S
In323       O328   2.276       .  S
In323       O330   2.241       .  S
In323       O331   2.250       .  S
In323       O332   2.198       .  S
In323       O335   2.245       .  S
C324        C575   1.423       .  S
C324        O330   1.265       .  A
C324        O332   1.261       .  A
O325        C333   1.259       .  A
O326        C333   1.258       .  A
C327        O334   1.257       .  A
C327        O328   1.256       .  A
C329        O331   1.256       .  A
C329        O335   1.267       .  A
C333        C573   1.423       .  S
C336        C337   1.409   1_565  A
C336        C341   1.411       .  A
C336        C571   1.455       .  S
C337        C338   1.408       .  A
C337        H342   1.084       .  S
C338        C339   1.399   1_545  A
C338        C502   1.472       .  S
C339        C340   1.392       .  A
C339        H343   1.085   1_565  S
C340        C341   1.410       .  A
C340        C396   1.480       .  S
C341        H344   1.084       .  S
C345        C346   1.409   1_455  A
C345        C350   1.411       .  A
C345        C569   1.455       .  S
C346        C347   1.408       .  A
C346        H351   1.084       .  S
C347        C348   1.399       .  A
C348        C349   1.392   1_655  A
C348        H352   1.084       .  S
C349        C350   1.410       .  A
C349        C370   1.480       .  S
C350        H353   1.084       .  S
C354        C355   1.410       .  A
C354        C359   1.411       .  A
C354        C567   1.455       .  S
C355        C356   1.409       .  A
C355        H360   1.084       .  S
C356        C357   1.399       .  A
C357        C358   1.393       .  A
C357        H361   1.084       .  S
C358        C359   1.410       .  A
C358        C383   1.480       .  S
C359        H362   1.084       .  S
C363        C568   1.483       .  S
C363        C570   1.483       .  S
C363        C572   1.482       .  S
C363        C591   1.497       .  S
In364       O366   2.220       .  S
In364       O367   2.246       .  S
In364       O375   2.219       .  S
In364       O369   2.279       .  S
In364       O371   2.201       .  S
In364       O372   2.253       .  S
In364       O373   2.239       .  S
In364       O376   2.243       .  S
C365        C565   1.422       .  S
C365        O371   1.261       .  A
C365        O373   1.265       .  A
O366        C374   1.259       .  A
O367        C374   1.258       .  A
C368        O375   1.257       .  A
C368        O369   1.256       .  A
C370        O372   1.256       .  A
C370        O376   1.267       .  A
C374        C563   1.423       .  S
In377       O379   2.223       .  S
In377       O380   2.242       .  S
In377       O388   2.221       .  S
In377       O382   2.275       .  S
In377       O384   2.242       .  S
In377       O385   2.253       .  S
In377       O386   2.198       .  S
In377       O389   2.242       .  S
C378        C562   1.423       .  S
C378        O384   1.265       .  A
C378        O386   1.261       .  A
O379        C387   1.259       .  A
O380        C387   1.258       .  A
C381        C481   1.472       .  S
C381        O388   1.257       .  A
C381        O382   1.256       .  A
C383        O385   1.256       .  A
C383        O389   1.267       .  A
C387        C566   1.423       .  S
In390       O392   2.221       .  S
In390       O393   2.244       .  S
In390       O401   2.223       .  S
In390       O395   2.276       .  S
In390       O397   2.241       .  S
In390       O398   2.251       .  S
In390       O399   2.198       .  S
In390       O402   2.244       .  S
C391        C564   1.423       .  S
C391        O397   1.265       .  A
C391        O399   1.261       .  A
O392        C400   1.259       .  A
O393        C400   1.258       .  A
C394        O401   1.257       .  A
C394        O395   1.256       .  A
C396        O398   1.256       .  A
C396        O402   1.267       .  A
C400        C561   1.423       .  S
C403        C404   1.409       .  A
C403        C408   1.411   1_455  A
C403        C560   1.455       .  S
C404        C405   1.408       .  A
C404        H409   1.084       .  S
C405        C406   1.399       .  A
C405        C528   1.472       .  S
C406        C407   1.392       .  A
C406        H410   1.085       .  S
C407        C408   1.410   1_455  A
C407        C463   1.480   1_455  S
C408        H411   1.084       .  S
C412        C413   1.409       .  A
C412        C417   1.411   1_556  A
C412        C557   1.455   1_556  S
C413        C414   1.408       .  A
C413        H418   1.084       .  S
C414        C415   1.399       .  A
C415        C416   1.393   1_556  A
C415        H419   1.084       .  S
C416        C417   1.410       .  A
C416        C437   1.480       .  S
C417        H420   1.084       .  S
C421        C422   1.409       .  A
C421        C426   1.411       .  A
C421        C555   1.455       .  S
C422        C423   1.408       .  A
C422        H427   1.084       .  S
C423        C424   1.399       .  A
C424        C425   1.392       .  A
C424        H428   1.084       .  S
C425        C426   1.410       .  A
C425        C450   1.480       .  S
C426        H429   1.084       .  S
C430        C556   1.482       .  S
C430        C558   1.483       .  S
C430        C559   1.482       .  S
C430        C620   1.497       .  S
In431       O433   2.223       .  S
In431       O434   2.243       .  S
In431       O442   2.220       .  S
In431       O436   2.276       .  S
In431       O438   2.241       .  S
In431       O439   2.253       .  S
In431       O440   2.199       .  S
In431       O443   2.242       .  S
C432        C553   1.422       .  S
C432        O438   1.264       .  A
C432        O440   1.260       .  A
O433        C441   1.259       .  A
O434        C441   1.258       .  A
C435        O442   1.257       .  A
C435        O436   1.256       .  A
C437        O439   1.256       .  A
C437        O443   1.267       .  A
C441        C551   1.423       .  S
In444       O446   2.222       .  S
In444       O447   2.241       .  S
In444       O455   2.221       .  S
In444       O449   2.274       .  S
In444       O451   2.242       .  S
In444       O452   2.251       .  S
In444       O453   2.197       .  S
In444       O456   2.242       .  S
C445        C549   1.422       .  S
C445        O451   1.265       .  A
C445        O453   1.260       .  A
O446        C454   1.259       .  A
O447        C454   1.258       .  A
C448        C490   1.472       .  S
C448        O455   1.257       .  A
C448        O449   1.256       .  A
C450        O452   1.256       .  A
C450        O456   1.267       .  A
C454        C554   1.422       .  S
In457       O459   2.221       .  S
In457       O460   2.243       .  S
In457       O468   2.222       .  S
In457       O462   2.276       .  S
In457       O464   2.240       .  S
In457       O465   2.250       .  S
In457       O466   2.199       .  S
In457       O469   2.244       .  S
C458        C552   1.423       .  S
C458        O464   1.265       .  A
C458        O466   1.261       .  A
O459        C467   1.259       .  A
O460        C467   1.258       .  A
C461        O468   1.257       .  A
C461        O462   1.256       .  A
C463        O465   1.256       .  A
C463        O469   1.267       .  A
C467        C550   1.423       .  S
C470        C471   1.411       .  A
C470        C475   1.409       .  A
C470        C547   1.454       .  S
C471        C472   1.410       .  A
C471        H476   1.084       .  S
C472        C473   1.392       .  A
C472        C508   1.479       .  S
C473        C474   1.399       .  A
C473        H477   1.084       .  S
C474        C475   1.408       .  A
C475        H478   1.084       .  S
C479        C480   1.409       .  A
C479        C484   1.411       .  A
C479        C546   1.454       .  S
C480        C481   1.408       .  A
C480        H485   1.084       .  S
C481        C482   1.399       .  A
C482        C483   1.393       .  A
C482        H486   1.084       .  S
C483        C484   1.410       .  A
C483        C534   1.480       .  S
C484        H487   1.084       .  S
C488        C489   1.409       .  A
C488        C493   1.411       .  A
C488        C543   1.454       .  S
C489        C490   1.408       .  A
C489        H494   1.084       .  S
C490        C491   1.399       .  A
C491        C492   1.393       .  A
C491        H495   1.085       .  S
C492        C493   1.410       .  A
C492        C521   1.480       .  S
C493        H496   1.084       .  S
C497        C544   1.482       .  S
C497        C545   1.482       .  S
C497        C548   1.482       .  S
C497        C634   1.496       .  S
In498       O500   2.242       .  S
In498       O501   2.251       .  S
In498       O509   2.221       .  S
In498       O503   2.275       .  S
In498       O505   2.241       .  S
In498       O506   2.243       .  S
In498       O507   2.198       .  S
In498       O510   2.222       .  S
C499        C540   1.422       .  S
C499        O505   1.265       .  A
C499        O507   1.261       .  A
O500        C508   1.267       .  A
O501        C508   1.256       .  A
C502        O509   1.257       .  A
C502        O503   1.256       .  A
C504        C542   1.423       .  S
C504        O506   1.258       .  A
C504        O510   1.259       .  A
In511       O513   2.244       .  S
In511       O514   2.250       .  S
In511       O522   2.221       .  S
In511       O516   2.276       .  S
In511       O518   2.241       .  S
In511       O519   2.243       .  S
In511       O520   2.198       .  S
In511       O523   2.222       .  S
C512        C541   1.423       .  S
C512        O518   1.265       .  A
C512        O520   1.261       .  A
O513        C521   1.267       .  A
O514        C521   1.256       .  A
C515        O522   1.257       .  A
C515        O516   1.256       .  A
C517        C538   1.423       .  S
C517        O519   1.258       .  A
C517        O523   1.259       .  A
In524       O526   2.243       .  S
In524       O527   2.251       .  S
In524       O535   2.221       .  S
In524       O529   2.275       .  S
In524       O531   2.241       .  S
In524       O532   2.243       .  S
In524       O533   2.198       .  S
In524       O536   2.222       .  S
C525        C537   1.422       .  S
C525        O531   1.265       .  A
C525        O533   1.261       .  A
O526        C534   1.267       .  A
O527        C534   1.256       .  A
C528        O535   1.257       .  A
C528        O529   1.256       .  A
C530        C539   1.423       .  S
C530        O532   1.258       .  A
C530        O536   1.259       .  A
C537        C538   1.198       .  T
C539        C540   1.198       .  T
C541        C542   1.198       .  T
C543        C544   1.215       .  T
C545        C546   1.216       .  T
C547        C548   1.216       .  T
C549        C550   1.198       .  T
C551        C552   1.198       .  T
C553        C554   1.198       .  T
C555        C556   1.216       .  T
C557        C558   1.216       .  T
C559        C560   1.216   1_655  T
C561        C562   1.198       .  T
C563        C564   1.198       .  T
C565        C566   1.198       .  T
C567        C568   1.216       .  T
C569        C570   1.216       .  T
C571        C572   1.216       .  T
C573        C574   1.198       .  T
C575        C576   1.198       .  T
C577        C578   1.198       .  T
C579        C580   1.216       .  T
C581        C582   1.216       .  T
C583        C584   1.216   1_556  T
C585        C586   1.198       .  T
C587        C588   1.198       .  T
C589        C590   1.198       .  T
C591        C592   1.225       .  T
C593        C594   1.216   1_455  T
C595        C596   1.216       .  T
C597        C598   1.216       .  T
C599        C600   1.198       .  T
C601        C602   1.198       .  T
C603        C604   1.198       .  T
C605        C606   1.225   1_554  T
C607        C608   1.216       .  T
C609        C610   1.216       .  T
C611        C612   1.216       .  T
C613        C614   1.198       .  T
C615        C616   1.198       .  T
C617        C618   1.198       .  T
C619        C620   1.224   1_456  T
C621        C622   1.216       .  T
C623        C624   1.216   1_554  T
C625        C626   1.216       .  T
C627        C628   1.198       .  T
C629        C630   1.198       .  T
C631        C632   1.198       .  T
C633        C634   1.224       .  T
C635        C636   1.216       .  T
C637        C638   1.216       .  T
C639        C640   1.216       .  T
