geometry optimzed in LAMMPS
_audit_creation_date              2020-12-01 
_audit_creation_method            'lammps2cif' 
_symmetry_space_group_name_H-M    'P1' 
_symmetry_Int_Tables_number       1 
_symmetry_cell_setting            triclinic 
loop_ 
_symmetry_equiv_pos_as_xyz 
  x,y,z 
_cell_length_a                    34.33423317 
_cell_length_b                    34.44253277014916 
_cell_length_c                    34.405011150182155 
_cell_angle_alpha                 90.11373408231556 
_cell_angle_beta                  89.9784073496551 
_cell_angle_gamma                 90.17300319279828 
loop_ 
_atom_site_label 
_atom_site_type_symbol 
_atom_site_fract_x 
_atom_site_fract_y 
_atom_site_fract_z 
_atom_site_charge 
O1          O  0.23573110  0.95030352  0.13805632    -0.86800
O2          O  0.19644606  0.97666950  0.20089433    -0.83900
C3          C  0.20716273  0.95317422  0.22676498     0.96600
O4          O  0.24186912  0.95327056  0.23897700    -0.83900
O5          O  0.32209248  0.96750307  0.23801511    -0.86600
C6          C  0.33666027  0.94431822  0.21316396     1.01100
O7          O  0.33009477  0.94866741  0.17750604    -0.79300
O8          O  0.29141525  0.96629109  0.11170991    -0.79500
C9          C  0.26423243  0.94174360  0.11679788     1.01100
O10         O  0.24701888  0.02913599  0.11123503    -0.86800
O11         O  0.21587114  0.05388969  0.18075967    -0.83900
C12         C  0.20806265  0.05623355  0.21650584     0.96600
O13         O  0.22617305  0.03516368  0.24082043    -0.83900
O14         O  0.30559552  0.04978248  0.23445718    -0.86500
C15         C  0.33808704  0.05315038  0.21757330     1.01100
O16         O  0.34837525  0.02890783  0.19191208    -0.79400
O17         O  0.30372782  0.04947123  0.13087192    -0.79500
C18         C  0.27368732  0.05452241  0.11081301     1.01100
Cr19       Cr  0.22706357  0.00243710  0.15906721     1.93700
Cr20       Cr  0.27412098  0.00144231  0.23445184     1.93200
Cr21       Cr  0.31527511  0.99859143  0.15481103     1.39100
O22         O  0.27227275  0.00071726  0.18309854    -1.24600
O23         O  0.77422943  0.05067546  0.14155487    -0.86800
O24         O  0.81549306  0.02374094  0.20277034    -0.83900
C25         C  0.80589659  0.04711417  0.22926224     0.96600
O26         O  0.77180310  0.04671184  0.24329587    -0.83900
O27         O  0.69098196  0.03403559  0.24440772    -0.86600
C28         C  0.67627567  0.05792323  0.22033247     1.01100
O29         O  0.68219253  0.05403950  0.18445102    -0.79300
O30         O  0.71779478  0.03498627  0.11679157    -0.79500
C31         C  0.74528023  0.05929332  0.12097703     1.01100
O32         O  0.76093860  0.97136415  0.11550254    -0.86800
O33         O  0.79527043  0.94659707  0.18308061    -0.83900
C34         C  0.80355560  0.94369070  0.21866854     0.96600
O35         O  0.78593809  0.96457997  0.24360087    -0.83900
O36         O  0.70593692  0.95088518  0.23886866    -0.86500
C37         C  0.67307067  0.94832438  0.22245904     1.01100
O38         O  0.66226295  0.97435719  0.19897697    -0.79400
O39         O  0.70409808  0.95253753  0.13606112    -0.79500
C40         C  0.73442228  0.94580848  0.11681455     1.01100
Cr41       Cr  0.78320110  0.99822598  0.16212468     1.93700
Cr42       Cr  0.73833743  0.99907816  0.23901236     1.93200
Cr43       Cr  0.69479323  0.00370517  0.16077763     1.39100
O44         O  0.73876087  0.00037421  0.18763802    -1.24600
O45         O  0.12587440  0.24849020  0.95386209    -0.86800
O46         O  0.19465825  0.21742972  0.92512931    -0.83900
C47         C  0.22986502  0.20709965  0.92343030     0.96600
O48         O  0.25454190  0.22139201  0.94690397    -0.83900
O49         O  0.25095590  0.30167428  0.94015372    -0.86600
C50         C  0.23602556  0.33515306  0.94134651     1.01100
O51         O  0.21256626  0.34411293  0.96822413    -0.79300
O52         O  0.14844681  0.30621824  0.94162211    -0.79500
C53         C  0.12714955  0.27801381  0.93227851     1.01100
O54         O  0.15088687  0.22546375  0.03012767    -0.86800
O55         O  0.21208145  0.18804775  0.99964140    -0.83900
C56         C  0.23845725  0.19344580  0.02458642     0.96600
O57         O  0.25290573  0.22713372  0.02943790    -0.83900
O58         O  0.25660628  0.30957936  0.02404016    -0.86500
C59         C  0.23268916  0.32339377  0.04866090     1.01100
O60         O  0.19683174  0.31681432  0.04524864    -0.79400
O61         O  0.12870212  0.28442221  0.02332064    -0.79500
C62         C  0.13219077  0.25379098  0.04353455     1.01100
Cr63       Cr  0.17233831  0.22304744  0.97760608     1.93700
Cr64       Cr  0.25027903  0.26542079  0.98528920     1.93200
Cr65       Cr  0.17309439  0.30975273  0.99390491     1.39100
O66         O  0.19881157  0.26606384  0.98598729    -1.24600
O67         O  0.15417880  0.76892016  0.04125266    -0.86800
O68         O  0.21632858  0.80955908  0.01421282    -0.83900
C69         C  0.24336053  0.79953398  0.03675841     0.96600
O70         O  0.25622830  0.76520976  0.03654153    -0.83900
O71         O  0.25564572  0.68499788  0.02321377    -0.86600
C72         C  0.23095533  0.66949802  0.04621476     1.01100
O73         O  0.19514241  0.67587035  0.04217760    -0.79300
O74         O  0.12823140  0.71332938  0.02460642    -0.79500
C75         C  0.13282743  0.74033212  0.04938244     1.01100
O76         O  0.12758627  0.75737284  0.96167147    -0.86800
O77         O  0.19569137  0.79038581  0.93711916    -0.83900
C78         C  0.23128642  0.79883586  0.93412219     0.96600
O79         O  0.25634967  0.78092459  0.95460518    -0.83900
O80         O  0.25068833  0.70147179  0.94020829    -0.86500
C81         C  0.23420198  0.66880011  0.93724174     1.01100
O82         O  0.20961986  0.65800574  0.96240084    -0.79400
O83         O  0.14762273  0.70111739  0.94151127    -0.79500
C84         C  0.12892035  0.73170753  0.93535822     1.01100
Cr85       Cr  0.17478818  0.77833706  0.98872906     1.93700
Cr86       Cr  0.25112659  0.73281642  0.98866841     1.93200
Cr87       Cr  0.17186992  0.69028554  0.99244843     1.39100
O88         O  0.19962872  0.73374568  0.99014828    -1.24600
O89         O  0.05683810  0.15088240  0.75717554    -0.86800
O90         O  0.02673485  0.21046924  0.79992705    -0.83900
C91         C  0.04597001  0.24083210  0.79279377     0.96600
O92         O  0.04655845  0.25492841  0.75878893    -0.83900
O93         O  0.03649429  0.25419022  0.67752470    -0.86600
C94         C  0.06171778  0.23103295  0.66345480     1.01100
O95         O  0.05909870  0.19495713  0.66888786    -0.79300
O96         O  0.03974987  0.12568641  0.70160683    -0.79500
C97         C  0.06474363  0.12975851  0.72835558     1.01100
O98         O  0.97756619  0.12309910  0.74348157    -0.86800
O99         O  0.95073828  0.18836513  0.78050409    -0.83900
C100        C  0.94598865  0.22382857  0.78849893     0.96600
O101        O  0.96473559  0.24974690  0.77009226    -0.83900
O102        O  0.95275580  0.24457948  0.69018458    -0.86500
C103        C  0.95361817  0.23061192  0.65625104     1.01100
O104        O  0.98102019  0.20846594  0.64625311    -0.79400
O105        O  0.95750997  0.14475456  0.68763699    -0.79500
C106        C  0.95124923  0.12513075  0.71782275     1.01100
Cr107      Cr  0.00323353  0.16959107  0.76712690     1.93700
Cr108      Cr  0.00032531  0.24723715  0.72363797     1.93200
Cr109      Cr  0.00890150  0.17002738  0.67927451     1.39100
O110        O  0.00430361  0.19608294  0.72353634    -1.24600
O111        O  0.95693920  0.15270283  0.21982858    -0.86800
O112        O  0.98583766  0.21537273  0.18130856    -0.83900
C113        C  0.96158856  0.24066265  0.19155697     0.96600
O114        O  0.96068464  0.25279375  0.22626178    -0.83900
O115        O  0.97270337  0.25165662  0.30651734    -0.86600
C116        C  0.94961189  0.22672895  0.32125719     1.01100
O117        O  0.95441562  0.19102293  0.31526766    -0.79300
O118        O  0.97199315  0.12576325  0.27536911    -0.79500
C119        C  0.94790669  0.13096417  0.24783768     1.01100
O120        O  0.03496130  0.12542621  0.23236796    -0.86800
O121        O  0.06208727  0.19454681  0.20290432    -0.83900
C122        C  0.06476248  0.23014694  0.19485078     0.96600
O123        O  0.04337727  0.25467657  0.21244393    -0.83900
O124        O  0.05604804  0.24814908  0.29263853    -0.86500
C125        C  0.05882351  0.23060058  0.32479832     1.01100
O126        O  0.03420527  0.20485999  0.33407684    -0.79400
O127        O  0.05560979  0.14390213  0.28894750    -0.79500
C128        C  0.06149244  0.12607623  0.25763383     1.01100
Cr129      Cr  0.00983027  0.17332549  0.21233597     1.93700
Cr130      Cr  0.00824932  0.24826239  0.25970164     1.93200
Cr131      Cr  0.00438680  0.16817163  0.30028994     1.39100
O132        O  0.00728234  0.19696002  0.25765666    -1.24600
O133        O  0.05650833  0.84935201  0.22082522    -0.86800
O134        O  0.02697894  0.78765404  0.18108046    -0.83900
C135        C  0.04991757  0.76095327  0.19083725     0.96600
O136        O  0.05031039  0.74838843  0.22537456    -0.83900
O137        O  0.03866228  0.74966847  0.30599092    -0.86600
C138        C  0.06240429  0.77394061  0.32106319     1.01100
O139        O  0.05895869  0.80975060  0.31471872    -0.79300
O140        O  0.04146795  0.87613437  0.27649643    -0.79500
C141        C  0.06568674  0.87075521  0.24908022     1.01100
O142        O  0.97832363  0.87734351  0.23406393    -0.86800
O143        O  0.95082282  0.80980397  0.20266128    -0.83900
C144        C  0.94677084  0.77433136  0.19472995     0.96600
O145        O  0.96767785  0.74912979  0.21180465    -0.83900
O146        O  0.95502838  0.75571414  0.29200583    -0.86500
C147        C  0.95435448  0.77145429  0.32521625     1.01100
O148        O  0.97991601  0.79615483  0.33470761    -0.79400
O149        O  0.95773669  0.85795322  0.29031744    -0.79500
C150        C  0.95149196  0.87575440  0.25907541     1.01100
Cr151      Cr  0.00335177  0.82972189  0.21281014     1.93700
Cr152      Cr  0.00300426  0.75422354  0.25906497     1.93200
Cr153      Cr  0.00909008  0.83342455  0.30089743     1.39100
O154        O  0.00548583  0.80539309  0.25769336    -1.24600
O155        O  0.87661413  0.76256854  0.95978669    -0.86800
O156        O  0.80586460  0.78713565  0.93099788    -0.83900
C157        C  0.77010885  0.79504892  0.92850966     0.96600
O158        O  0.74593430  0.77913454  0.95166215    -0.83900
O159        O  0.75309894  0.69911977  0.94266916    -0.86600
C160        C  0.77268453  0.66821890  0.93930811     1.01100
O161        O  0.79939746  0.66002614  0.96323069    -0.79300
O162        O  0.85977851  0.70471636  0.94220884    -0.79500
C163        C  0.87686780  0.73601824  0.93471307     1.01100
O164        O  0.84878336  0.77874239  0.03609170    -0.86800
O165        O  0.78489372  0.81298099  0.00556983    -0.83900
C166        C  0.76267987  0.80402700  0.03315204     0.96600
O167        O  0.74936684  0.76971559  0.03553010    -0.83900
O168        O  0.75037302  0.68807228  0.02563788    -0.86500
C169        C  0.77575542  0.67341539  0.04808691     1.01100
O170        O  0.81136396  0.68065040  0.04334875    -0.79400
O171        O  0.87579499  0.72200429  0.02597877    -0.79500
C172        C  0.87031019  0.75153859  0.04756754     1.01100
Cr173      Cr  0.82771875  0.78210904  0.98337047     1.93700
Cr174      Cr  0.75327246  0.73393749  0.98897657     1.93200
Cr175      Cr  0.83471678  0.69493244  0.99336283     1.39100
O176        O  0.80492857  0.73662917  0.98888443    -1.24600
O177        O  0.22612736  0.04649198  0.82994340    -0.86800
O178        O  0.19349935  0.01627032  0.76515577    -0.83900
C179        C  0.20434623  0.04258661  0.74218088     0.96600
O180        O  0.23975283  0.04509025  0.73211907    -0.83900
O181        O  0.32105337  0.03385202  0.73552080    -0.86600
C182        C  0.33484643  0.05700554  0.76088416     1.01100
O183        O  0.32606137  0.05311955  0.79615637    -0.79300
O184        O  0.28210761  0.03649630  0.85899741    -0.79500
C185        C  0.25289061  0.05812771  0.85205706     1.01100
O186        O  0.24079233  0.97053306  0.85927071    -0.86800
O187        O  0.21876022  0.94128587  0.78848490    -0.83900
C188        C  0.21185920  0.93837951  0.75270491     0.96600
O189        O  0.22794485  0.96168288  0.72888540    -0.83900
O190        O  0.30718915  0.95114198  0.73926558    -0.86500
C191        C  0.33808101  0.94798697  0.75898655     1.01100
O192        O  0.34634918  0.97271620  0.78508580    -0.79400
O193        O  0.29926195  0.95255788  0.84462565    -0.79500
C194        C  0.26735792  0.94551761  0.86100827     1.01100
Cr195      Cr  0.22304054  0.99384277  0.80951379     1.93700
Cr196      Cr  0.27396733  0.99812972  0.73737310     1.93200
Cr197      Cr  0.31050428  0.00336791  0.81938073     1.39100
O198        O  0.26952354  0.99886363  0.78854180    -1.24600
O199        O  0.97443149  0.87455130  0.74622106    -0.86800
O200        O  0.94664945  0.80552334  0.77600435    -0.83900
C201        C  0.94493484  0.77031871  0.78578706     0.96600
O202        O  0.96761220  0.74580425  0.76994520    -0.83900
O203        O  0.95663367  0.75098912  0.69011785    -0.86600
C204        C  0.95388036  0.76856172  0.65798551     1.01100
O205        O  0.97976845  0.79255077  0.64754086    -0.79300
O206        O  0.95721347  0.85490931  0.68901512    -0.79500
C207        C  0.94919002  0.87278450  0.71979692     1.01100
O208        O  0.05142836  0.84843418  0.76331821    -0.86800
O209        O  0.02241108  0.78671473  0.80093645    -0.83900
C210        C  0.04905438  0.76317914  0.79246769     0.96600
O211        O  0.05073955  0.74842412  0.75867521    -0.83900
O212        O  0.03986962  0.74640623  0.67713402    -0.86500
C213        C  0.06346137  0.77072608  0.66221291     1.01100
O214        O  0.05945928  0.80650811  0.66837607    -0.79400
O215        O  0.04059399  0.87278169  0.70565904    -0.79500
C216        C  0.06299734  0.86771844  0.73454913     1.01100
Cr217      Cr  0.99889142  0.82749480  0.76850820     1.93700
Cr218      Cr  0.00379747  0.75130553  0.72359804     1.93200
Cr219      Cr  0.00890682  0.83011816  0.68073204     1.39100
O220        O  0.00421833  0.80269204  0.72408635    -1.24600
O221        O  0.85471348  0.22874768  0.04313795    -0.86800
O222        O  0.79156094  0.18938377  0.01553591    -0.83900
C223        C  0.76559557  0.20002180  0.03901326     0.96600
O224        O  0.75382706  0.23471795  0.03944976    -0.83900
O225        O  0.75539005  0.31469276  0.02633746    -0.86600
C226        C  0.78068109  0.33017586  0.04870480     1.01100
O227        O  0.81642403  0.32391525  0.04364015    -0.79300
O228        O  0.88184669  0.28375570  0.02615108    -0.79500
C229        C  0.87683929  0.25691523  0.05095431     1.01100
O230        O  0.88179609  0.23927306  0.96437806    -0.86800
O231        O  0.81278339  0.20911622  0.93889584    -0.83900
C232        C  0.77704548  0.20148263  0.93572751     0.96600
O233        O  0.75229827  0.21897109  0.95707068    -0.83900
O234        O  0.75855896  0.29864986  0.94317156    -0.86500
C235        C  0.77616403  0.33070229  0.93948895     1.01100
O236        O  0.80212170  0.34071493  0.96361148    -0.79400
O237        O  0.86282582  0.29519394  0.94291293    -0.79500
C238        C  0.88059218  0.26386983  0.93733021     1.01100
Cr239      Cr  0.83386191  0.21984829  0.99066354     1.93700
Cr240      Cr  0.75862966  0.26698055  0.99149524     1.93200
Cr241      Cr  0.83902144  0.30778954  0.99388745     1.39100
O242        O  0.81011649  0.26507541  0.99227244    -1.24600
O243        O  0.76202887  0.96669251  0.86111612    -0.86800
O244        O  0.79061781  0.94013542  0.79115268    -0.83900
C245        C  0.79981808  0.93883433  0.75572245     0.96600
O246        O  0.78413846  0.96225068  0.73189668    -0.83900
O247        O  0.70373141  0.95369573  0.73861084    -0.86600
C248        C  0.67081400  0.95339312  0.75501156     1.01100
O249        O  0.66222335  0.97873038  0.78021535    -0.79300
O250        O  0.70413271  0.95117635  0.84151227    -0.79500
C251        C  0.73489530  0.94212452  0.85900004     1.01100
O252        O  0.78170328  0.04367237  0.83737396    -0.86800
O253        O  0.81774300  0.01572360  0.77380297    -0.83900
C254        C  0.80949120  0.04267340  0.75054548     0.96600
O255        O  0.77552158  0.04522935  0.73644122    -0.83900
O256        O  0.69412391  0.03779607  0.73671539    -0.86500
C257        C  0.68112554  0.06114921  0.76236169     1.01100
O258        O  0.68794237  0.05560686  0.79777681    -0.79400
O259        O  0.72435042  0.03301137  0.86296713    -0.79500
C260        C  0.75409479  0.05469841  0.85869051     1.01100
Cr261      Cr  0.78500756  0.99181607  0.81457658     1.93700
Cr262      Cr  0.73905203  0.99963587  0.73928547     1.93200
Cr263      Cr  0.69766801  0.00407204  0.81899168     1.39100
O264        O  0.74047525  0.99891043  0.79065688    -1.24600
O265        O  0.53187263  0.25392793  0.37226677    -0.86800
O266        O  0.55758587  0.29082299  0.30638693    -0.83900
C267        C  0.56135540  0.29995524  0.27110264     0.96600
O268        O  0.54099637  0.28298854  0.24518236    -0.83900
O269        O  0.55560597  0.20298601  0.24712668    -0.86600
C270        C  0.55828735  0.16973714  0.26244483     1.01100
O271        O  0.53269481  0.15813443  0.28610293    -0.79300
O272        O  0.55385926  0.19939842  0.34985904    -0.79500
C273        C  0.55921738  0.22964378  0.36962490     1.01100
O274        O  0.45295909  0.26569187  0.34536087    -0.86800
O275        O  0.48035480  0.30941633  0.28625155    -0.83900
C276        C  0.45737113  0.30062521  0.25910401     0.96600
O277        O  0.45888066  0.26744665  0.24324813    -0.83900
O278        O  0.47255126  0.18698633  0.24064234    -0.86500
C279        C  0.44919008  0.17054816  0.26429770     1.01100
O280        O  0.45290610  0.17526219  0.30041850    -0.79400
O281        O  0.47028570  0.20965734  0.36921393    -0.79500
C282        C  0.44513923  0.23628246  0.36552055     1.01100
Cr283      Cr  0.50566761  0.27683065  0.32602831     1.93700
Cr284      Cr  0.50695485  0.23465527  0.24763415     1.93200
Cr285      Cr  0.50267746  0.18886206  0.32483326     1.39100
O286        O  0.50494497  0.23340849  0.29904882    -1.24600
O287        O  0.34992222  0.54408475  0.26428619    -0.86800
O288        O  0.28638856  0.51532907  0.30084683    -0.83900
C289        C  0.26165064  0.54042886  0.29106875     0.96600
O290        O  0.25034806  0.54276686  0.25616816    -0.83900
O291        O  0.25110436  0.53168264  0.17529323    -0.86600
C292        C  0.27627931  0.55437630  0.16028988     1.01100
O293        O  0.31195065  0.54968995  0.16691369    -0.79300
O294        O  0.37660368  0.53241768  0.20756845    -0.79500
C295        C  0.37079768  0.55501823  0.23630639     1.01100
O296        O  0.37731591  0.46702996  0.24909762    -0.86800
O297        O  0.30746481  0.43957811  0.27584975    -0.83900
C298        C  0.27193234  0.43718402  0.28439509     0.96600
O299        O  0.24751794  0.45995491  0.26854141    -0.83900
O300        O  0.25432061  0.44870629  0.18887557    -0.86500
C301        C  0.27251251  0.44519855  0.15714681     1.01100
O302        O  0.29842033  0.46959972  0.14750186    -0.79400
O303        O  0.35955505  0.44859970  0.19162709    -0.79500
C304        C  0.37717874  0.44158964  0.22272555     1.01100
Cr305      Cr  0.32898847  0.49171647  0.26933932     1.93700
Cr306      Cr  0.25433975  0.49584574  0.22196602     1.93200
Cr307      Cr  0.33488041  0.49976797  0.18151603     1.39100
O308        O  0.30579005  0.49619299  0.22399164    -1.24600
O309        O  0.26868407  0.37369834  0.51990103    -0.86800
O310        O  0.29502398  0.30514100  0.54948390    -0.83900
C311        C  0.30331277  0.26982284  0.55309642     0.96600
O312        O  0.28553500  0.24461267  0.53254644    -0.83900
O313        O  0.20622585  0.25466141  0.54506353    -0.86600
C314        C  0.17419423  0.27243459  0.54689428     1.01100
O315        O  0.16487534  0.29673877  0.52097114    -0.79300
O316        O  0.21101027  0.35764642  0.53982269    -0.79500
C317        C  0.24289896  0.37451682  0.54593483     1.01100
O318        O  0.28164188  0.34319316  0.44353018    -0.86800
O319        O  0.31718263  0.28009439  0.47399101    -0.83900
C320        C  0.30586101  0.25431881  0.45050019     0.96600
O321        O  0.27073927  0.24327179  0.45007474    -0.83900
O322        O  0.19028099  0.24696633  0.46275335    -0.86500
C323        C  0.17696525  0.27094700  0.43799407     1.01100
O324        O  0.18511845  0.30648466  0.44046868    -0.79400
O325        O  0.22607773  0.37168185  0.45603602    -0.79500
C326        C  0.25423974  0.36495601  0.43303821     1.01100
Cr327      Cr  0.28755197  0.32430410  0.49663501     1.93700
Cr328      Cr  0.23806693  0.25082391  0.49743802     1.93200
Cr329      Cr  0.19969456  0.33140584  0.48967693     1.39100
O330        O  0.24158576  0.30190309  0.49419200    -1.24600
O331        O  0.27317242  0.64487635  0.44034854    -0.86800
O332        O  0.31618317  0.70499565  0.46891731    -0.83900
C333        C  0.30913771  0.73360440  0.44732966     0.96600
O334        O  0.27490941  0.74708184  0.44537429    -0.83900
O335        O  0.19342602  0.74854519  0.45669592    -0.86600
C336        C  0.17652724  0.72425107  0.43429661     1.01100
O337        O  0.18103270  0.68831925  0.43892131    -0.79300
O338        O  0.21661058  0.62063834  0.45680325    -0.79500
C339        C  0.24391184  0.62432860  0.43218305     1.01100
O340        O  0.25980094  0.61834971  0.51906000    -0.86800
O341        O  0.29512319  0.68537506  0.54506431    -0.83900
C342        C  0.30423979  0.72076053  0.54850354     0.96600
O343        O  0.28748396  0.74626823  0.52770913    -0.83900
O344        O  0.20733189  0.74397070  0.54003219    -0.86500
C345        C  0.17433300  0.72796797  0.54320927     1.01100
O346        O  0.16312760  0.70325286  0.51843892    -0.79400
O347        O  0.20453086  0.64026694  0.53997158    -0.79500
C348        C  0.23453901  0.62039994  0.54566870     1.01100
Cr349      Cr  0.28286218  0.66486554  0.49311129     1.93700
Cr350      Cr  0.24021551  0.74272734  0.49233129     1.93200
Cr351      Cr  0.19467218  0.66482643  0.48877170     1.39100
O352        O  0.23916214  0.69127125  0.49117885    -1.24600
O353        O  0.38322714  0.46985456  0.74069221    -0.86800
O354        O  0.31657002  0.44402315  0.70421052    -0.83900
C355        C  0.28119289  0.44137611  0.69467639     0.96600
O356        O  0.25584864  0.46217093  0.71157650    -0.83900
O357        O  0.25888916  0.45094645  0.79183516    -0.86600
C358        C  0.27245467  0.45138539  0.82596610     1.01100
O359        O  0.29601884  0.47771535  0.83622194    -0.79300
O360        O  0.36025929  0.45229846  0.79683897    -0.79500
C361        C  0.37959652  0.44444929  0.76680617     1.01100
O362        O  0.35922600  0.54833805  0.72410726    -0.86800
O363        O  0.29890962  0.52021777  0.68207774    -0.83900
C364        C  0.27166633  0.54356602  0.68914321     0.96600
O365        O  0.25543011  0.54408482  0.72227610    -0.83900
O366        O  0.25311352  0.53453311  0.80372998    -0.86500
C367        C  0.27694431  0.55889002  0.81840283     1.01100
O368        O  0.31304748  0.55538552  0.81316230    -0.79400
O369        O  0.38214355  0.53384618  0.78138552    -0.79500
C370        C  0.37961449  0.55730678  0.75315456     1.01100
Cr371      Cr  0.33799480  0.49581100  0.71587710     1.93700
Cr372      Cr  0.25938761  0.49796806  0.75788501     1.93200
Cr373      Cr  0.33637290  0.50436002  0.80370624     1.39100
O374        O  0.31088076  0.49960563  0.75905223    -1.24600
O375        O  0.46973125  0.74377286  0.36181311    -0.86800
O376        O  0.44283086  0.71456180  0.29133359    -0.83900
C377        C  0.44201311  0.70451742  0.25602427     0.96600
O378        O  0.46619972  0.71911543  0.23210989    -0.83900
O379        O  0.45633420  0.79905515  0.23572862    -0.86600
C380        C  0.45386156  0.83147371  0.25286215     1.01100
O381        O  0.47868501  0.84135466  0.27824939    -0.79300
O382        O  0.45456926  0.80119209  0.34098201    -0.79500
C383        C  0.44690553  0.77233660  0.36185697     1.01100
O384        O  0.54706455  0.72507389  0.33677020    -0.86800
O385        O  0.51855321  0.68807583  0.27413478    -0.83900
C386        C  0.54654375  0.69604302  0.25188380     0.96600
O387        O  0.54937897  0.72959418  0.23700256    -0.83900
O388        O  0.53953826  0.81119952  0.23336728    -0.86500
C389        C  0.56270953  0.82606543  0.25812825     1.01100
O390        O  0.55808586  0.81964664  0.29378469    -0.79400
O391        O  0.53761818  0.78342692  0.36014164    -0.79500
C392        C  0.55898557  0.75354051  0.35640945     1.01100
Cr393      Cr  0.49479415  0.72108746  0.31457431     1.93700
Cr394      Cr  0.50287595  0.76501498  0.23800256     1.93200
Cr395      Cr  0.50678028  0.80830197  0.31661797     1.39100
O396        O  0.50171859  0.76502590  0.28950366    -1.24600
O397        O  0.66464380  0.45663813  0.27154688    -0.86800
O398        O  0.72970899  0.48671035  0.30484933    -0.83900
C399        C  0.75412327  0.46139819  0.29474746     0.96600
O400        O  0.76475070  0.45853100  0.25966016    -0.83900
O401        O  0.76201808  0.46796427  0.17864783    -0.86600
C402        C  0.73686778  0.44450881  0.16477254     1.01100
O403        O  0.70135531  0.44853092  0.17266898    -0.79300
O404        O  0.63713806  0.46590740  0.21475207    -0.79500
C405        C  0.64213136  0.44519099  0.24500046     1.01100
O406        O  0.63687667  0.53294492  0.25497749    -0.86800
O407        O  0.70761766  0.56168800  0.27871630    -0.83900
C408        C  0.74319252  0.56415165  0.28713864     0.96600
O409        O  0.76742281  0.54158157  0.27063462    -0.83900
O410        O  0.75808331  0.55097140  0.19097298    -0.86500
C411        C  0.73905366  0.55343859  0.15967273     1.01100
O412        O  0.71301779  0.52863002  0.15130349    -0.79400
O413        O  0.65287091  0.54933791  0.19642926    -0.79500
C414        C  0.63519117  0.55686291  0.22737218     1.01100
Cr415      Cr  0.68605187  0.50922015  0.27422802     1.93700
Cr416      Cr  0.75950646  0.50464386  0.22485528     1.93200
Cr417      Cr  0.67799639  0.49846107  0.18689645     1.39100
O418        O  0.70807971  0.50357943  0.22839988    -1.24600
O419        O  0.73024025  0.65727905  0.53783335    -0.86800
O420        O  0.69225831  0.71864577  0.50738086    -0.83900
C421        C  0.69917050  0.74584283  0.53093780     0.96600
O422        O  0.73349802  0.75926280  0.53428136    -0.83900
O423        O  0.81594172  0.75963861  0.52603387    -0.86600
C424        C  0.82967936  0.73536557  0.55031221     1.01100
O425        O  0.82239655  0.69975752  0.54692012    -0.79300
O426        O  0.78767870  0.63238093  0.52689331    -0.79500
C427        C  0.75820832  0.63650669  0.54885492     1.01100
O428        O  0.74891236  0.63077359  0.46083476    -0.86800
O429        O  0.71778415  0.69865301  0.43228882    -0.83900
C430        C  0.70845695  0.73391519  0.42952529     0.96600
O431        O  0.72436347  0.75901380  0.45160238    -0.83900
O432        O  0.80515515  0.75348546  0.44225931    -0.86500
C433        C  0.83846112  0.73790139  0.44251327     1.01100
O434        O  0.84745953  0.71414615  0.46901077    -0.79400
O435        O  0.80647399  0.65096391  0.44450640    -0.79500
C436        C  0.77598628  0.63252331  0.43615797     1.01100
Cr437      Cr  0.72540155  0.67770356  0.48488756     1.93700
Cr438      Cr  0.77016091  0.75434662  0.48868917     1.93200
Cr439      Cr  0.81291936  0.67590817  0.49628392     1.39100
O440        O  0.76952820  0.70298906  0.49025004    -1.24600
O441        O  0.63237792  0.53138120  0.73755209    -0.86800
O442        O  0.70046150  0.55448919  0.70317419    -0.83900
C443        C  0.73600730  0.55676304  0.69429025     0.96600
O444        O  0.76069534  0.53457629  0.71054848    -0.83900
O445        O  0.75769794  0.54806746  0.79093033    -0.86600
C446        C  0.74129975  0.55104350  0.82371809     1.01100
O447        O  0.71680238  0.52598442  0.83476097    -0.79300
O448        O  0.65449011  0.55015678  0.79362840    -0.79500
C449        C  0.63573811  0.55742787  0.76318564     1.01100
O450        O  0.65553836  0.45159390  0.72413179    -0.86800
O451        O  0.71714156  0.47707691  0.68260471    -0.83900
C452        C  0.74263767  0.45238460  0.69133218     0.96600
O453        O  0.75793766  0.45240112  0.72480335    -0.83900
O454        O  0.75997194  0.46496353  0.80553127    -0.86500
C455        C  0.73510916  0.44212987  0.82092263     1.01100
O456        O  0.69920687  0.44705833  0.81546245    -0.79400
O457        O  0.63181962  0.46857166  0.78049448    -0.79500
C458        C  0.63502064  0.44384541  0.75339728     1.01100
Cr459      Cr  0.67782355  0.50344494  0.71496559     1.93700
Cr460      Cr  0.75551887  0.50007661  0.75833497     1.93200
Cr461      Cr  0.67723376  0.49811667  0.80293368     1.39100
O462        O  0.70390552  0.50040641  0.75880491    -1.24600
O463        O  0.54061741  0.74266147  0.62206888    -0.86800
O464        O  0.56803113  0.71537648  0.69183987    -0.83900
C465        C  0.57013942  0.70642021  0.72721075     0.96600
O466        O  0.54741992  0.72248807  0.75148061    -0.83900
O467        O  0.55658266  0.80270565  0.74197869    -0.86600
C468        C  0.55494536  0.83553901  0.72569591     1.01100
O469        O  0.52738535  0.84336687  0.70261229    -0.79300
O470        O  0.55231432  0.80220576  0.64039324    -0.79500
C471        C  0.56160171  0.77286741  0.62084362     1.01100
O472        O  0.46319158  0.72214727  0.64770908    -0.86800
O473        O  0.49194389  0.68822009  0.71197762    -0.83900
C474        C  0.46667230  0.69755667  0.73697227     0.96600
O475        O  0.46469984  0.73198072  0.74987865    -0.83900
O476        O  0.47307693  0.81336833  0.74879068    -0.86500
C477        C  0.44742482  0.82515707  0.72490721     1.01100
O478        O  0.44947266  0.81570170  0.68965302    -0.79400
O479        O  0.47062110  0.77992978  0.62258131    -0.79500
C480        C  0.45076859  0.74898104  0.62641732     1.01100
Cr481      Cr  0.51560475  0.72031527  0.66977251     1.93700
Cr482      Cr  0.51037698  0.76775273  0.74466744     1.93200
Cr483      Cr  0.50056317  0.80721564  0.66547063     1.39100
O484        O  0.50847835  0.76504748  0.69342568    -1.24600
O485        O  0.47664791  0.26435178  0.62434202    -0.86800
O486        O  0.44813246  0.28825493  0.69507385    -0.83900
C487        C  0.44592264  0.29612086  0.73074989     0.96600
O488        O  0.46878467  0.27958552  0.75462599    -0.83900
O489        O  0.45901645  0.20005809  0.74525653    -0.86600
C490        C  0.45641241  0.16879414  0.72613745     1.01100
O491        O  0.48118945  0.16071685  0.70002774    -0.98500
O492        O  0.45933082  0.20605454  0.64024774    -0.79500
C493        C  0.45185227  0.23735528  0.62334237     1.01100
O494        O  0.55322106  0.28076957  0.65232053    -0.86800
O495        O  0.52349703  0.31412801  0.71695032    -0.83900
C496        C  0.54961585  0.30379857  0.74037652     0.96600
O497        O  0.55221657  0.26880091  0.75097154    -0.83900
O498        O  0.54250786  0.18842875  0.74804623    -0.86500
C499        C  0.56607483  0.17576630  0.72250265     1.01100
O500        O  0.56109221  0.18338205  0.68721042    -0.79400
O501        O  0.54272213  0.22464506  0.62395952    -0.79500
C502        C  0.56442149  0.25409807  0.62998703     1.01100
Cr503      Cr  0.50056587  0.28371854  0.67337398     1.93700
Cr504      Cr  0.50563666  0.23413542  0.74627857     1.93200
Cr505      Cr  0.51067392  0.19661602  0.66472868     1.39100
O506        O  0.50592024  0.23788282  0.69504009    -1.24600
O507        O  0.74021636  0.35697162  0.44268317    -0.86800
O508        O  0.69599811  0.29757606  0.46963935    -0.83900
C509        C  0.70288942  0.27079766  0.44566321     0.96600
O510        O  0.73596091  0.25458069  0.44501594    -0.83900
O511        O  0.81715187  0.25088275  0.45529935    -0.86600
C512        C  0.83356463  0.27518827  0.43261830     1.01100
O513        O  0.82956251  0.31115236  0.43780605    -0.79300
O514        O  0.79727972  0.37950646  0.45959404    -0.79500
C515        C  0.76994913  0.37694775  0.43492668     1.01100
O516        O  0.75556300  0.38062831  0.52183721    -0.86800
O517        O  0.71828292  0.31459062  0.54645193    -0.83900
C518        C  0.70903551  0.27926809  0.54961782     0.96600
O519        O  0.72431226  0.25393405  0.52749747    -0.83900
O520        O  0.80441960  0.25461741  0.53927494    -0.86500
C521        C  0.83864356  0.26809823  0.54023218     1.01100
O522        O  0.84970037  0.29250122  0.51523918    -0.79400
O523        O  0.81018985  0.35621290  0.54155440    -0.79500
C524        C  0.78046779  0.37632462  0.54842213     1.01100
Cr525      Cr  0.73050121  0.33590577  0.49491642     1.93700
Cr526      Cr  0.77102049  0.25703840  0.49176813     1.93200
Cr527      Cr  0.81844592  0.33340243  0.48893242     1.39100
O528        O  0.77330149  0.30833138  0.49155601    -1.24600
C529        C  0.61832190  0.22928166  0.58689669    -0.14800
C530        C  0.60312046  0.25813388  0.61143818     0.07300
C531        C  0.62598164  0.29114999  0.61959744    -0.14800
C532        C  0.66199948  0.29643522  0.60178844    -0.14800
C533        C  0.67617495  0.26886841  0.57532097     0.07300
C534        C  0.65461731  0.23460516  0.56896692    -0.14800
H535        H  0.60179119  0.20314867  0.58080323     0.11300
H536        H  0.61566537  0.31358632  0.63911976     0.11300
H537        H  0.67797098  0.32302210  0.60746732     0.11300
H538        H  0.66476638  0.21291221  0.54854313     0.11300
C539        C  0.63177240  0.37369681  0.73611791    -0.14800
C540        C  0.61562052  0.40569924  0.75577918     0.07300
C541        C  0.58100579  0.40077007  0.77685907    -0.14800
C542        C  0.56111048  0.36530581  0.77537419    -0.14800
C543        C  0.57625453  0.33406231  0.75392070     0.07300
C544        C  0.61231365  0.33805532  0.73539044    -0.14800
H545        H  0.65884561  0.37662424  0.72018215     0.11300
H546        H  0.56817344  0.42492359  0.79241660     0.11300
H547        H  0.53263111  0.36301028  0.78877777     0.11300
H548        H  0.62379054  0.31466240  0.71770806     0.11300
C549        C  0.62044471  0.61034690  0.71725406    -0.14800
C550        C  0.62059914  0.59669633  0.75560621     0.07300
C551        C  0.60880762  0.62164277  0.78572188    -0.14800
C552        C  0.59448506  0.65878623  0.77707710    -0.14800
C553        C  0.59310569  0.67186616  0.73833969     0.07300
C554        C  0.60755579  0.64762550  0.70879610    -0.14800
H555        H  0.63029607  0.59207788  0.69357436     0.11300
H556        H  0.60942302  0.61194173  0.81563861     0.11300
H557        H  0.58327152  0.67666580  0.80043558     0.11300
H558        H  0.60688862  0.65654844  0.67863401     0.11300
C559        C  0.72436375  0.41385810  0.63417116    -0.14800
C560        C  0.75378531  0.42532079  0.66009426     0.07300
C561        C  0.79283448  0.41763199  0.65066044    -0.14800
C562        C  0.80216412  0.40082724  0.61448888    -0.14800
C563        C  0.77252425  0.39244512  0.58742228     0.07300
C564        C  0.73358659  0.39808911  0.59822856    -0.14800
H565        H  0.69399355  0.41921125  0.64088234     0.11300
H566        H  0.81600615  0.42668747  0.67003033     0.11300
H567        H  0.83240147  0.39596574  0.60703166     0.11300
H568        H  0.71001951  0.39078168  0.57857597     0.11300
C569        C  0.72593559  0.62912989  0.61331779    -0.14800
C570        C  0.75577830  0.61786695  0.58766583     0.07300
C571        C  0.78270554  0.58979717  0.60004383    -0.14800
C572        C  0.77826384  0.57172124  0.63639964    -0.14800
C573        C  0.74695290  0.58161856  0.66092356     0.07300
C574        C  0.72160256  0.61128784  0.64936315    -0.14800
H575        H  0.70521988  0.65135873  0.60524988     0.11300
H576        H  0.80633275  0.58094299  0.58118438     0.11300
H577        H  0.79796798  0.54856096  0.64433860     0.11300
H578        H  0.69730387  0.61966911  0.66759933     0.11300
C579        C  0.62778365  0.75285646  0.53679199    -0.14800
C580        C  0.66493756  0.76089394  0.55241477     0.07300
C581        C  0.66742609  0.77821687  0.58931785    -0.14800
C582        C  0.63326447  0.78466492  0.61107689    -0.14800
C583        C  0.59666037  0.77332792  0.59622575     0.07300
C584        C  0.59423804  0.75832407  0.55864642    -0.14800
H585        H  0.62462003  0.74031963  0.50804862     0.11300
H586        H  0.69554461  0.78466882  0.60206409     0.11300
H587        H  0.63559512  0.79619140  0.64030425     0.11300
H588        H  0.56636125  0.74973739  0.54656625     0.11300
C589        C  0.75248973  0.39874396  0.32892492    -0.14800
C590        C  0.76869076  0.43585684  0.32539067     0.07300
C591        C  0.78882355  0.45220998  0.35707366    -0.14800
C592        C  0.79128427  0.43227832  0.39243316    -0.14800
C593        C  0.77237668  0.39641656  0.39683739     0.07300
C594        C  0.75406609  0.37928232  0.36445055    -0.14800
H595        H  0.73579379  0.38625013  0.30526217     0.11300
H596        H  0.80043468  0.48144105  0.35515344     0.11300
H597        H  0.80565512  0.44594989  0.41692344     0.11300
H598        H  0.73971151  0.35134097  0.36702746     0.11300
C599        C  0.72430866  0.60327853  0.34457915    -0.14800
C600        C  0.75422813  0.58730431  0.32175496     0.07300
C601        C  0.79255116  0.58765609  0.33637033    -0.14800
C602        C  0.80034166  0.60275424  0.37357606    -0.14800
C603        C  0.76968344  0.61629361  0.39699301     0.07300
C604        C  0.73181725  0.61681959  0.38185712    -0.14800
H605        H  0.69441016  0.60347757  0.33453542     0.11300
H606        H  0.81613686  0.57514770  0.31966697     0.11300
H607        H  0.82991348  0.60267643  0.38450733     0.11300
H608        H  0.70772883  0.62784513  0.39891291     0.11300
C609        C  0.61202629  0.77853471  0.40102153    -0.14800
C610        C  0.59851762  0.75133915  0.37365836     0.07300
C611        C  0.62393177  0.72179803  0.36118834    -0.14800
C612        C  0.66105918  0.71817707  0.37710037    -0.14800
C613        C  0.67393393  0.74400428  0.40591954     0.07300
C614        C  0.64942735  0.77483173  0.41711074    -0.14800
H615        H  0.59334014  0.80186478  0.41080476     0.11300
H616        H  0.61492916  0.70087984  0.33939860     0.11300
H617        H  0.67914316  0.69409891  0.36797477     0.11300
H618        H  0.65827596  0.79474803  0.43987391     0.11300
C619        C  0.58970824  0.65588343  0.20801588    -0.14800
C620        C  0.57426766  0.66428795  0.24481875     0.07300
C621        C  0.58031141  0.63805343  0.27543083    -0.14800
C622        C  0.59958437  0.60327644  0.26929902    -0.14800
C623        C  0.61383606  0.59374316  0.23237308     0.07300
C624        C  0.60956558  0.62072047  0.20184148    -0.14800
H625        H  0.58500533  0.67549287  0.18392088     0.11300
H626        H  0.56889924  0.64395170  0.30421767     0.11300
H627        H  0.60314893  0.58374265  0.29366780     0.11300
H628        H  0.62097457  0.61435630  0.17318970     0.11300
C629        C  0.39423674  0.39103488  0.72151064    -0.14800
C630        C  0.39477582  0.40517417  0.75971237     0.07300
C631        C  0.40765099  0.38089591  0.78980751    -0.14800
C632        C  0.42230462  0.34383306  0.78113665    -0.14800
C633        C  0.42276377  0.33027462  0.74248786     0.07300
C634        C  0.40720891  0.35387225  0.71311808    -0.14800
H635        H  0.38387391  0.40885561  0.69780754     0.11300
H636        H  0.40773782  0.39110661  0.81959641     0.11300
H637        H  0.43450179  0.32645840  0.80430355     0.11300
H638        H  0.40714389  0.34462683  0.68300147     0.11300
C639        C  0.43242471  0.60228950  0.77730881    -0.14800
C640        C  0.39972853  0.59539539  0.75370661     0.07300
C641        C  0.38605889  0.62546746  0.72971312    -0.14800
C642        C  0.40581238  0.66089055  0.72771953    -0.14800
C643        C  0.43974056  0.66690890  0.74944435     0.07300
C644        C  0.45268158  0.63763506  0.77468603    -0.14800
H645        H  0.44345050  0.57972071  0.79617170     0.11300
H646        H  0.36059857  0.62122804  0.71158377     0.11300
H647        H  0.39609143  0.68264687  0.70721670     0.11300
H648        H  0.47961538  0.64133676  0.79068400     0.11300
C649        C  0.21225315  0.59354622  0.61065074    -0.14800
C650        C  0.24206451  0.60190668  0.58366565     0.07300
C651        C  0.28080548  0.59505052  0.59417822    -0.14800
C652        C  0.28974538  0.57914151  0.63004764    -0.14800
C653        C  0.26025705  0.56871578  0.65638989     0.07300
C654        C  0.22129140  0.57659380  0.64680503    -0.14800
H655        H  0.18211328  0.59919103  0.60339670     0.11300
H656        H  0.30451087  0.60219537  0.57464039     0.11300
H657        H  0.32008266  0.57360579  0.63669265     0.11300
H658        H  0.19800701  0.56820846  0.66632251     0.11300
C659        C  0.34043952  0.77031666  0.39131688    -0.14800
C660        C  0.34310058  0.75106700  0.42717028     0.07300
C661        C  0.38023031  0.74480463  0.44340414    -0.14800
C662        C  0.41389645  0.75408991  0.42296136    -0.14800
C663        C  0.41150052  0.77077638  0.38608049     0.07300
C664        C  0.37461542  0.78024950  0.37086690    -0.14800
H665        H  0.31228210  0.77561622  0.37823363     0.11300
H666        H  0.38337995  0.73095962  0.47148217     0.11300
H667        H  0.44193735  0.74677928  0.43535839     0.11300
H668        H  0.37221545  0.79288265  0.34216602     0.11300
C669        C  0.35844925  0.76655194  0.56742751    -0.14800
C670        C  0.33861989  0.73102663  0.57251657     0.07300
C671        C  0.35560318  0.70248799  0.59603597    -0.14800
C672        C  0.39197225  0.70855479  0.61289396    -0.14800
C673        C  0.41253875  0.74345447  0.60698398     0.07300
C674        C  0.39509684  0.77274647  0.58459166    -0.14800
H675        H  0.34637699  0.78892815  0.54898124     0.11300
H676        H  0.34134514  0.67473531  0.60043028     0.11300
H677        H  0.40414102  0.68545791  0.63036617     0.11300
H678        H  0.40991566  0.80015006  0.57998620     0.11300
C679        C  0.22206127  0.40249496  0.61013125    -0.14800
C680        C  0.25175233  0.39182053  0.58418375     0.07300
C681        C  0.29068622  0.39410634  0.59644288    -0.14800
C682        C  0.29991683  0.40732259  0.63361761    -0.14800
C683        C  0.27046910  0.41947348  0.65921938     0.07300
C684        C  0.23136641  0.41667262  0.64719357    -0.14800
H685        H  0.19177847  0.40042810  0.60154847     0.11300
H686        H  0.31414984  0.38522694  0.57737356     0.11300
H687        H  0.33033918  0.40951891  0.64165187     0.11300
H688        H  0.20805128  0.42632284  0.66605418     0.11300
C689        C  0.36399066  0.29020089  0.58632517    -0.14800
C690        C  0.33876446  0.25987941  0.57529878     0.07300
C691        C  0.35106645  0.22128887  0.58024283    -0.14800
C692        C  0.38808407  0.21342886  0.59567700    -0.14800
C693        C  0.41357855  0.24407863  0.60518707     0.07300
C694        C  0.40096319  0.28241661  0.60052192    -0.14800
H695        H  0.35584942  0.32031743  0.58259740     0.11300
H696        H  0.33246538  0.19736446  0.57154181     0.11300
H697        H  0.39698226  0.18355746  0.59962460     0.11300
H698        H  0.41955614  0.30666199  0.60837565     0.11300
C699        C  0.37285518  0.62086605  0.26592399    -0.14800
C700        C  0.38713513  0.59478839  0.23779729     0.07300
C701        C  0.41560419  0.60772399  0.21151763    -0.14800
C702        C  0.43127195  0.64522881  0.21513788    -0.14800
C703        C  0.41854034  0.67026925  0.24498150     0.07300
C704        C  0.38830571  0.65808772  0.26943771    -0.14800
H705        H  0.35022625  0.61222145  0.28607048     0.11300
H706        H  0.42668746  0.58849593  0.18919372     0.11300
H707        H  0.45501262  0.65368697  0.19619426     0.11300
H708        H  0.37794279  0.67667392  0.29266465     0.11300
C709        C  0.22650007  0.54935840  0.35329956    -0.14800
C710        C  0.24694210  0.56588051  0.32196590     0.07300
C711        C  0.26283675  0.60311206  0.32600392    -0.14800
C712        C  0.26074720  0.62242942  0.36171499    -0.14800
C713        C  0.24214952  0.60507673  0.39378414     0.07300
C714        C  0.22350957  0.56911898  0.38880817    -0.14800
H715        H  0.21495838  0.52014077  0.35100352     0.11300
H716        H  0.27946757  0.61592445  0.30252584     0.11300
H717        H  0.27484471  0.65046485  0.36465897     0.11300
H718        H  0.20886981  0.55524674  0.41299042     0.11300
C719        C  0.28487479  0.36922855  0.36779624    -0.14800
C720        C  0.25557458  0.38157909  0.39350498     0.07300
C721        C  0.22767681  0.40828501  0.38035952    -0.14800
C722        C  0.23058346  0.42403126  0.34289096    -0.14800
C723        C  0.26133772  0.41312683  0.31816804     0.07300
C724        C  0.28760970  0.38465733  0.33062459    -0.14800
H725        H  0.30643317  0.34812746  0.37662845     0.11300
H726        H  0.20443450  0.41784257  0.39935234     0.11300
H727        H  0.21029368  0.44640247  0.33421224     0.11300
H728        H  0.31169801  0.37579988  0.31231026     0.11300
C729        C  0.62639859  0.21021716  0.39316733    -0.14800
C730        C  0.59747682  0.23860579  0.38735490     0.07300
C731        C  0.60612549  0.27740382  0.39620257    -0.14800
C732        C  0.64187393  0.28754893  0.41210566    -0.14800
C733        C  0.67000313  0.25919983  0.42039360     0.07300
C734        C  0.66246877  0.22043020  0.40993098    -0.14800
H735        H  0.62073352  0.18016069  0.38574436     0.11300
H736        H  0.58513312  0.30019868  0.39085966     0.11300
H737        H  0.64698900  0.31777255  0.41936340     0.11300
H738        H  0.68353168  0.19799316  0.41629665     0.11300
C739        C  0.40130410  0.21360639  0.41940451    -0.14800
C740        C  0.40661541  0.23376743  0.38440673     0.07300
C741        C  0.37488461  0.25361302  0.36795781    -0.14800
C742        C  0.33938321  0.25579307  0.38756993    -0.14800
C743        C  0.33519754  0.23857991  0.42410008     0.07300
C744        C  0.36593977  0.21657496  0.43947618    -0.14800
H745        H  0.42523686  0.19796470  0.43251518     0.11300
H746        H  0.37806469  0.26891120  0.34064593     0.11300
H747        H  0.31638678  0.27376224  0.37582335     0.11300
H748        H  0.36352204  0.20412068  0.46827786     0.11300
C749        C  0.61207613  0.34883990  0.28884125    -0.14800
C750        C  0.58565705  0.33420443  0.26132180     0.07300
C751        C  0.57847051  0.35597441  0.22747808    -0.14800
C752        C  0.59653492  0.39218306  0.22191147    -0.14800
C753        C  0.62213576  0.40722009  0.25007155     0.07300
C754        C  0.63009434  0.38474076  0.28327479    -0.14800
H755        H  0.61807844  0.33296224  0.31531890     0.11300
H756        H  0.55768691  0.34577217  0.20607281     0.11300
H757        H  0.59008349  0.40858132  0.19589269     0.11300
H758        H  0.65007157  0.39503833  0.30539624     0.11300
C759        C  0.42697397  0.34367586  0.20835575    -0.14800
C760        C  0.43006525  0.33128452  0.24711934     0.07300
C761        C  0.41355168  0.35405498  0.27667211    -0.14800
C762        C  0.39660946  0.38965476  0.26827340    -0.14800
C763        C  0.39516531  0.40332056  0.22995953     0.07300
C764        C  0.40917804  0.37944634  0.19976063    -0.14800
H765        H  0.44020033  0.32695225  0.18519226     0.11300
H766        H  0.41558939  0.34511596  0.30679561     0.11300
H767        H  0.38495928  0.40677639  0.29200837     0.11300
H768        H  0.40776901  0.38913109  0.16987166     0.11300
C769        C  0.60271634  0.93359037  0.73967906    -0.14800
C770        C  0.64180688  0.92333723  0.74532745     0.07300
C771        C  0.65229389  0.88397197  0.74480788    -0.14800
C772        C  0.62386086  0.85518634  0.73949011    -0.14800
C773        C  0.58477028  0.86548434  0.73350801     0.07300
C774        C  0.57455590  0.90495124  0.73310773    -0.14800
H775        H  0.59403872  0.96380332  0.74021653     0.11300
H776        H  0.68225875  0.87550202  0.74965474     0.11300
H777        H  0.63246348  0.82495524  0.73942446     0.11300
H778        H  0.54462573  0.91360262  0.72836140     0.11300
C779        C  0.63487267  0.11374653  0.78132962    -0.14800
C780        C  0.65518410  0.09367605  0.75190206     0.07300
C781        C  0.64826083  0.10333168  0.71299414    -0.14800
C782        C  0.62042908  0.13130480  0.70366730    -0.14800
C783        C  0.59858863  0.14979673  0.73304814     0.07300
C784        C  0.60672167  0.14134457  0.77199509    -0.14800
H785        H  0.63964329  0.10712022  0.81171223     0.11300
H786        H  0.66361034  0.08861632  0.68976717     0.11300
H787        H  0.61507917  0.13741164  0.67327103     0.11300
H788        H  0.59066133  0.15529077  0.79521885     0.11300
C789        C  0.72989033  0.36371415  0.08952870    -0.14800
C790        C  0.76915361  0.35746525  0.08019401     0.07300
C791        C  0.79788362  0.37870517  0.10049851    -0.14800
C792        C  0.78759795  0.40633448  0.12852431    -0.14800
C793        C  0.74832406  0.41321143  0.13726690     0.07300
C794        C  0.71960824  0.39112196  0.11784553    -0.14800
H795        H  0.70709232  0.34779429  0.07462979     0.11300
H796        H  0.82849446  0.37463185  0.09414310     0.11300
H797        H  0.81040236  0.42271772  0.14290489     0.11300
H798        H  0.68898998  0.39562884  0.12385705     0.11300
C799        C  0.79274751  0.38698395  0.89650417    -0.14800
C800        C  0.76648062  0.35738622  0.90713537     0.07300
C801        C  0.73113435  0.35403485  0.88687416    -0.14800
C802        C  0.72155660  0.38080592  0.85784387    -0.14800
C803        C  0.74740944  0.41108607  0.84801312     0.07300
C804        C  0.78345125  0.41334505  0.86707324    -0.14800
H805        H  0.82046074  0.39001727  0.91124184     0.11300
H806        H  0.71041968  0.33143635  0.89422478     0.11300
H807        H  0.69355178  0.37824282  0.84355792     0.11300
H808        H  0.80385647  0.43639949  0.86030157     0.11300
C809        C  0.79235014  0.15469192  0.88309971    -0.14800
C810        C  0.76602089  0.16777371  0.91138005     0.07300
C811        C  0.73392640  0.14414031  0.92104972    -0.14800
C812        C  0.72946739  0.10725261  0.90400188    -0.14800
C813        C  0.75716188  0.09350629  0.87722489     0.07300
C814        C  0.78804199  0.11815268  0.86634894    -0.14800
H815        H  0.81740024  0.17212889  0.87506318     0.11300
H816        H  0.71351831  0.15325694  0.94323971     0.11300
H817        H  0.70504980  0.08918684  0.91247102     0.11300
H818        H  0.80948154  0.10903642  0.84513572     0.11300
C819        C  0.89682388  0.72842920  0.63683907    -0.14800
C820        C  0.92025799  0.76144903  0.63207725     0.07300
C821        C  0.91092933  0.78819188  0.60259537    -0.14800
C822        C  0.87971586  0.78119082  0.57735235    -0.14800
C823        C  0.85754200  0.74712458  0.58092847     0.07300
C824        C  0.86595889  0.72123591  0.61141561    -0.14800
H825        H  0.90301784  0.70757506  0.65951463     0.11300
H826        H  0.92807148  0.81435295  0.59874692     0.11300
H827        H  0.87409035  0.80148501  0.55402897     0.11300
H828        H  0.84932769  0.69469508  0.61494317     0.11300
C829        C  0.09271679  0.72133416  0.61719670    -0.14800
C830        C  0.09445873  0.75799150  0.63501908     0.07300
C831        C  0.12425561  0.78393844  0.62394030    -0.14800
C832        C  0.15094101  0.77391457  0.59486190    -0.14800
C833        C  0.14797402  0.73801184  0.57577091     0.07300
C834        C  0.11901198  0.71157345  0.58768833    -0.14800
H835        H  0.07014283  0.70075188  0.62501145     0.11300
H836        H  0.12647263  0.81239774  0.63722542     0.11300
H837        H  0.17308057  0.79473129  0.58645102     0.11300
H838        H  0.11644971  0.68338740  0.57388769     0.11300
C839        C  0.88528871  0.90081693  0.69703525    -0.14800
C840        C  0.90981637  0.88820241  0.72712171     0.07300
C841        C  0.89561813  0.88777247  0.76533480    -0.14800
C842        C  0.85824562  0.90072110  0.77370779    -0.14800
C843        C  0.83439837  0.91589675  0.74427908     0.07300
C844        C  0.84801379  0.91523779  0.70564756    -0.14800
H845        H  0.89540505  0.90072713  0.66721840     0.11300
H846        H  0.91353857  0.87739722  0.78900973     0.11300
H847        H  0.84898346  0.90084522  0.80379573     0.11300
H848        H  0.83045533  0.92704991  0.68238803     0.11300
C849        C  0.37314714  0.11698563  0.77704943    -0.14800
C850        C  0.36347904  0.08758855  0.75018509     0.07300
C851        C  0.38378172  0.08601664  0.71476932    -0.14800
C852        C  0.41399244  0.11235610  0.70703007    -0.14800
C853        C  0.42421953  0.14113904  0.73431450     0.07300
C854        C  0.40295058  0.14359197  0.76909502    -0.14800
H855        H  0.35801096  0.11910198  0.80459894     0.11300
H856        H  0.37714146  0.06369762  0.69355195     0.11300
H857        H  0.42944349  0.11012081  0.67967277     0.11300
H858        H  0.40987830  0.16559177  0.79056193     0.11300
C859        C  0.39844356  0.90999131  0.77473562    -0.14800
C860        C  0.36506086  0.91515110  0.75157208     0.07300
C861        C  0.35741617  0.88820648  0.72176886    -0.14800
C862        C  0.38333881  0.85783300  0.71429893    -0.14800
C863        C  0.41722672  0.85336732  0.73677959     0.07300
C864        C  0.42414847  0.87932017  0.76752577    -0.14800
H865        H  0.40503056  0.92998275  0.79817345     0.11300
H866        H  0.33175266  0.89097842  0.70370929     0.11300
H867        H  0.37728747  0.83824824  0.69035786     0.11300
H868        H  0.45028653  0.87690633  0.78495991     0.11300
C869        C  0.16630378  0.88473929  0.76698244    -0.14800
C870        C  0.17913469  0.91332997  0.74097689     0.07300
C871        C  0.15496729  0.92400763  0.70978947    -0.14800
C872        C  0.11718014  0.90874476  0.70681269    -0.14800
C873        C  0.10324395  0.88285748  0.73511082     0.07300
C874        C  0.12879197  0.86984484  0.76421268    -0.14800
H875        H  0.18435277  0.87586005  0.79121108     0.11300
H876        H  0.16408618  0.94628917  0.68953915     0.11300
H877        H  0.09841101  0.91843500  0.68350617     0.11300
H878        H  0.11947607  0.84886837  0.78574199     0.11300
C879        C  0.72632410  0.63223660  0.89603392    -0.14800
C880        C  0.76464723  0.64067697  0.90729893     0.07300
C881        C  0.79562377  0.62147095  0.88861726    -0.14800
C882        C  0.78834146  0.59361061  0.85976102    -0.14800
C883        C  0.74994456  0.58372065  0.85009467     0.07300
C884        C  0.71902889  0.60350298  0.86814246    -0.14800
H885        H  0.70203758  0.64670296  0.90992228     0.11300
H886        H  0.82548590  0.62787432  0.89658916     0.11300
H887        H  0.81253936  0.57863838  0.84626515     0.11300
H888        H  0.68914098  0.59635510  0.86090545     0.11300
C889        C  0.72759967  0.62793926  0.07929531    -0.14800
C890        C  0.76459189  0.64548026  0.07890801     0.07300
C891        C  0.79245086  0.63351932  0.10638296    -0.14800
C892        C  0.78392884  0.60405865  0.13290759    -0.14800
C893        C  0.74754184  0.58544501  0.13228002     0.07300
C894        C  0.71924293  0.59801266  0.10558045    -0.14800
H895        H  0.70556188  0.63646561  0.05851195     0.11300
H896        H  0.82123654  0.64646599  0.10696019     0.11300
H897        H  0.80620342  0.59517128  0.15329453     0.11300
H898        H  0.69067482  0.58460368  0.10495903     0.11300
C899        C  0.90642466  0.71310038  0.87176648    -0.14800
C900        C  0.89385771  0.74340042  0.89606585     0.07300
C901        C  0.89450164  0.78159272  0.88202019    -0.14800
C902        C  0.90809371  0.78961256  0.84480733    -0.14800
C903        C  0.92250250  0.75977207  0.82094414     0.07300
C904        C  0.92123060  0.72129464  0.83464441    -0.14800
H905        H  0.90560828  0.68332602  0.88180281     0.11300
H906        H  0.88415018  0.80543076  0.89978287     0.11300
H907        H  0.90891831  0.81961283  0.83549800     0.11300
H908        H  0.93259637  0.69775164  0.81713305     0.11300
C909        C  0.71971946  0.84166016  0.90258129    -0.14800
C910        C  0.75851525  0.82847840  0.90419055     0.07300
C911        C  0.78806442  0.85185410  0.88833560    -0.14800
C912        C  0.77975951  0.88858101  0.87418726    -0.14800
C913        C  0.74150535  0.90265612  0.87410323     0.07300
C914        C  0.71117222  0.87837828  0.88696311    -0.14800
H915        H  0.69634075  0.82435413  0.91474090     0.11300
H916        H  0.81825424  0.84286272  0.88895771     0.11300
H917        H  0.80363495  0.90625003  0.86358556     0.11300
H918        H  0.68131070  0.88839173  0.88644233     0.11300
C919        C  0.10020133  0.72146922  0.35459054    -0.14800
C920        C  0.09329724  0.76103573  0.34819651     0.07300
C921        C  0.11520476  0.78860255  0.36932211    -0.14800
C922        C  0.14279607  0.77686443  0.39676103    -0.14800
C923        C  0.14933292  0.73728843  0.40351812     0.07300
C924        C  0.12799071  0.70973525  0.38179566    -0.14800
H925        H  0.08384200  0.69955504  0.33889511     0.11300
H926        H  0.11050204  0.81940228  0.36524641     0.11300
H927        H  0.15857740  0.79876807  0.41304638     0.11300
H928        H  0.13217822  0.67892265  0.38632058     0.11300
C929        C  0.88454299  0.76278423  0.34505781    -0.14800
C930        C  0.92437142  0.76094340  0.35412685     0.07300
C931        C  0.93561959  0.75213064  0.39228895    -0.14800
C932        C  0.90762035  0.74468836  0.42083963    -0.14800
C933        C  0.86770277  0.74717331  0.41217128     0.07300
C934        C  0.85638231  0.75646578  0.37401550    -0.14800
H935        H  0.87528900  0.77014065  0.31590010     0.11300
H936        H  0.96619479  0.75086577  0.39995597     0.11300
H937        H  0.91720730  0.73748003  0.44993048     0.11300
H938        H  0.82581474  0.75818087  0.36647590     0.11300
C939        C  0.93025028  0.73080973  0.13839734    -0.14800
C940        C  0.92213277  0.76390152  0.16103938     0.07300
C941        C  0.89540506  0.79119572  0.14696614    -0.14800
C942        C  0.87879131  0.78677290  0.11033299    -0.14800
C943        C  0.88831521  0.75485380  0.08662687     0.07300
C944        C  0.91341915  0.72629065  0.10144780    -0.14800
H945        H  0.95117008  0.70954688  0.14830103     0.11300
H946        H  0.88854998  0.81699633  0.16364938     0.11300
H947        H  0.85889809  0.80895136  0.10034797     0.11300
H948        H  0.92075770  0.70103587  0.08417558     0.11300
C949        C  0.90804193  0.27826554  0.35149680    -0.14800
C950        C  0.91760239  0.23894834  0.34733831     0.07300
C951        C  0.89715203  0.21118992  0.36949424    -0.14800
C952        C  0.86882796  0.22266788  0.39633020    -0.14800
C953        C  0.86015095  0.26211987  0.40136193     0.07300
C954        C  0.87953148  0.28970958  0.37807292    -0.14800
H955        H  0.92301644  0.30026481  0.33466664     0.11300
H956        H  0.90379108  0.18057376  0.36691969     0.11300
H957        H  0.85450539  0.20075671  0.41382023     0.11300
H958        H  0.87346291  0.32040634  0.38109288     0.11300
C959        C  0.11456051  0.27270139  0.34711978    -0.14800
C960        C  0.09067681  0.23999462  0.35249830     0.07300
C961        C  0.09740634  0.21597834  0.38492264    -0.14800
C962        C  0.12665951  0.22495434  0.41182228    -0.14800
C963        C  0.14951566  0.25842357  0.40719042     0.07300
C964        C  0.14347250  0.28195651  0.37431116    -0.14800
H965        H  0.11036042  0.29160778  0.32237074     0.11300
H966        H  0.07978058  0.19031098  0.38975325     0.11300
H967        H  0.13044317  0.20646477  0.43695774     0.11300
H968        H  0.16077469  0.30793389  0.36990600     0.11300
C969        C  0.95110789  0.27624080  0.13022652    -0.14800
C970        C  0.93536012  0.25480353  0.16123119     0.07300
C971        C  0.89919918  0.23655604  0.15658974    -0.14800
C972        C  0.87998024  0.23798870  0.12083769    -0.14800
C973        C  0.89642669  0.25807078  0.08920137     0.07300
C974        C  0.93148520  0.27840185  0.09462010    -0.14800
H975        H  0.97977689  0.28921733  0.13281990     0.11300
H976        H  0.88726683  0.21878641  0.17966320     0.11300
H977        H  0.85272467  0.22240867  0.11759841     0.11300
H978        H  0.94475078  0.29408582  0.07076520     0.11300
C979        C  0.88415699  0.24409410  0.63765631    -0.14800
C980        C  0.92354625  0.24029381  0.62722548     0.07300
C981        C  0.93416212  0.24367243  0.58797439    -0.14800
C982        C  0.90622115  0.25186796  0.55978726    -0.14800
C983        C  0.86685248  0.25570535  0.57001828     0.07300
C984        C  0.85586283  0.25125127  0.60910795    -0.14800
H985        H  0.87527486  0.24100302  0.66770253     0.11300
H986        H  0.96430259  0.24062659  0.57916920     0.11300
H987        H  0.91539949  0.25532922  0.52985451     0.11300
H988        H  0.82569393  0.25455980  0.61766976     0.11300
C989        C  0.12641557  0.22258325  0.63221373    -0.14800
C990        C  0.09284023  0.24515954  0.63761998     0.07300
C991        C  0.08740556  0.27837950  0.61475349    -0.14800
C992        C  0.11413934  0.28763780  0.58549183    -0.14800
C993        C  0.14693839  0.26407766  0.57904450     0.07300
C994        C  0.15330941  0.23207623  0.60339538    -0.14800
H995        H  0.13134142  0.19688032  0.64962371     0.11300
H996        H  0.06160282  0.29606987  0.61821696     0.11300
H997        H  0.10876661  0.31280047  0.56746942     0.11300
H998        H  0.17847469  0.21360380  0.59941927     0.11300
C999        C  0.88572511  0.09991454  0.69492473    -0.14800
C1000       C  0.91316365  0.10621896  0.72479138     0.07300
C1001       C  0.90323563  0.09622664  0.76300291    -0.14800
C1002       C  0.86785415  0.07844259  0.77106070    -0.14800
C1003       C  0.84140933  0.06972628  0.74117479     0.07300
C1004       C  0.84998548  0.08147219  0.70305936    -0.14800
H1005       H  0.89237814  0.10816311  0.66529887     0.11300
H1006       H  0.92303068  0.10187426  0.78688195     0.11300
H1007       H  0.86175380  0.06998577  0.80078315     0.11300
H1008       H  0.83014575  0.07469945  0.67953007     0.11300
C1009       C  0.13592078  0.12650138  0.74391648    -0.14800
C1010       C  0.10285994  0.10992846  0.72616871     0.07300
C1011       C  0.10650931  0.07406164  0.70715205    -0.14800
C1012       C  0.14161876  0.05359923  0.70883952    -0.14800
C1013       C  0.17403705  0.06922694  0.72836516     0.07300
C1014       C  0.17134391  0.10641688  0.74472281    -0.14800
H1015       H  0.13401500  0.15447286  0.75823307     0.11300
H1016       H  0.08157607  0.06076847  0.69310617     0.11300
H1017       H  0.14276842  0.02442135  0.69706459     0.11300
H1018       H  0.19564076  0.11853980  0.76079113     0.11300
C1019       C  0.91171011  0.20569496  0.84975534    -0.14800
C1020       C  0.92381973  0.23472615  0.82374578     0.07300
C1021       C  0.92094435  0.27387692  0.83525037    -0.14800
C1022       C  0.90716496  0.28363227  0.87231015    -0.14800
C1023       C  0.89686584  0.25439198  0.89878332     0.07300
C1024       C  0.89881183  0.21540930  0.88695301    -0.14800
H1025       H  0.91376878  0.17526780  0.84202857     0.11300
H1026       H  0.93048247  0.29692328  0.81607997     0.11300
H1027       H  0.90530096  0.31393550  0.88055367     0.11300
H1028       H  0.89003453  0.19230841  0.90643000     0.11300
C1029       C  0.21458936  0.62101938  0.09801734    -0.14800
C1030       C  0.24306157  0.64189399  0.07703488     0.07300
C1031       C  0.28246758  0.63486026  0.08497185    -0.14800
C1032       C  0.29310728  0.60719677  0.11277957    -0.14800
C1033       C  0.26458926  0.58564669  0.13303382     0.07300
C1034       C  0.22521287  0.59316847  0.12553076    -0.14800
H1035       H  0.18387016  0.62560911  0.09265504     0.11300
H1036       H  0.30506255  0.65039215  0.06941792     0.11300
H1037       H  0.32380680  0.60213941  0.11781304     0.11300
H1038       H  0.20256694  0.57717483  0.14053725     0.11300
C1039       C  0.21989583  0.61006961  0.89675714    -0.14800
C1040       C  0.24378374  0.64240688  0.90465134     0.07300
C1041       C  0.27674131  0.64891417  0.88134878    -0.14800
C1042       C  0.28661562  0.62255640  0.85202639    -0.14800
C1043       C  0.26333550  0.58960421  0.84501363     0.07300
C1044       C  0.22942969  0.58408112  0.86704773    -0.14800
H1045       H  0.19403536  0.60452376  0.91392740     0.11300
H1046       H  0.29551279  0.67371449  0.88652214     0.11300
H1047       H  0.31296571  0.62745940  0.83538666     0.11300
H1048       H  0.21123407  0.55872905  0.86251587     0.11300
C1049       C  0.10418983  0.70838850  0.87010698    -0.14800
C1050       C  0.11051470  0.73863795  0.89713709     0.07300
C1051       C  0.10168922  0.77677783  0.88633773    -0.14800
C1052       C  0.08514826  0.78443160  0.85033316    -0.14800
C1053       C  0.07630677  0.75417687  0.82425822     0.07300
C1054       C  0.08685818  0.71608307  0.83387480    -0.14800
H1055       H  0.11157728  0.67875349  0.87744435     0.11300
H1056       H  0.10737551  0.80085573  0.90585611     0.11300
H1057       H  0.07743972  0.81414915  0.84353181     0.11300
H1058       H  0.07984092  0.69226011  0.81449880     0.11300
C1059       C  0.13175550  0.75759731  0.11985087    -0.14800
C1060       C  0.11377009  0.73912154  0.08797636     0.07300
C1061       C  0.07733808  0.72138664  0.09331054    -0.14800
C1062       C  0.05786173  0.72503707  0.12895418    -0.14800
C1063       C  0.07506321  0.74531055  0.16008763     0.07300
C1064       C  0.11263135  0.76052499  0.15563065    -0.14800
H1065       H  0.16012154  0.77105152  0.11666483     0.11300
H1066       H  0.06290147  0.70695790  0.06929063     0.11300
H1067       H  0.02829813  0.71424245  0.13146251     0.11300
H1068       H  0.12589688  0.77727691  0.17881696     0.11300
C1069       C  0.28095341  0.84714118  0.90943633    -0.14800
C1070       C  0.24221130  0.83375026  0.91130570     0.07300
C1071       C  0.21254226  0.85727384  0.89598110    -0.14800
C1072       C  0.22102432  0.89374070  0.88069299    -0.14800
C1073       C  0.25950041  0.90751286  0.87942346     0.07300
C1074       C  0.28958547  0.88354389  0.89311009    -0.14800
H1075       H  0.30440581  0.82993478  0.92137446     0.11300
H1076       H  0.18233797  0.84815431  0.89701014     0.11300
H1077       H  0.19730863  0.91109864  0.86945983     0.11300
H1078       H  0.31957863  0.89328538  0.89191347     0.11300
C1079       C  0.24893686  0.40377455  0.92210599    -0.14800
C1080       C  0.24571454  0.36450293  0.91158744     0.07300
C1081       C  0.24959188  0.35403936  0.87226909    -0.14800
C1082       C  0.25665553  0.38248451  0.84395418    -0.14800
C1083       C  0.26102646  0.42162214  0.85474138     0.07300
C1084       C  0.25718358  0.43194232  0.89407694    -0.14800
H1085       H  0.24570521  0.41258947  0.95217687     0.11300
H1086       H  0.24652060  0.32398646  0.86342192     0.11300
H1087       H  0.25981302  0.37381073  0.81384351     0.11300
H1088       H  0.26044332  0.46192563  0.90311574     0.11300
C1089       C  0.28093191  0.37095297  0.07592082    -0.14800
C1090       C  0.24552486  0.35075460  0.07935225     0.07300
C1091       C  0.21992899  0.36067765  0.10973159    -0.14800
C1092       C  0.22891609  0.39095761  0.13530412    -0.14800
C1093       C  0.26349082  0.41232627  0.13081448     0.07300
C1094       C  0.28971652  0.40160722  0.10125745    -0.14800
H1095       H  0.30107022  0.36418667  0.05265662     0.11300
H1096       H  0.19236458  0.34567111  0.11312068     0.11300
H1097       H  0.20829190  0.39829160  0.15796602     0.11300
H1098       H  0.31691045  0.41716515  0.09748479     0.11300
C1099       C  0.09183427  0.27884101  0.09994710    -0.14800
C1100       C  0.11628628  0.25054771  0.08351852     0.07300
C1101       C  0.12778961  0.21889805  0.10660757    -0.14800
C1102       C  0.11373857  0.21441473  0.14425909    -0.14800
C1103       C  0.08746330  0.24124940  0.16001179     0.07300
C1104       C  0.07740504  0.27415159  0.13791852    -0.14800
H1105       H  0.08306497  0.30389461  0.08316407     0.11300
H1106       H  0.14742764  0.19700140  0.09541574     0.11300
H1107       H  0.12207029  0.18878565  0.16042882     0.11300
H1108       H  0.05675527  0.29508055  0.14912019     0.11300
C1109       C  0.10221388  0.27620223  0.82513682    -0.14800
C1110       C  0.06486731  0.25956593  0.82663613     0.07300
C1111       C  0.04636568  0.25555616  0.86295446    -0.14800
C1112       C  0.06590901  0.26431037  0.89725833    -0.14800
C1113       C  0.10414017  0.27820190  0.89616839     0.07300
C1114       C  0.12178186  0.28561505  0.85990636    -0.14800
H1115       H  0.11712304  0.27938670  0.79758309     0.11300
H1116       H  0.01727042  0.24340946  0.86497078     0.11300
H1117       H  0.05179993  0.25841587  0.92481157     0.11300
H1118       H  0.15161027  0.29586912  0.85857487     0.11300
C1119       C  0.27172106  0.14906821  0.91169653    -0.14800
C1120       C  0.24035887  0.17270892  0.90012352     0.07300
C1121       C  0.21479906  0.15909944  0.87145485    -0.14800
C1122       C  0.21929238  0.12199582  0.85599230    -0.14800
C1123       C  0.24944096  0.09751104  0.86883876     0.07300
C1124       C  0.27623463  0.11174840  0.89616020    -0.14800
H1125       H  0.29150129  0.15852613  0.93435408     0.11300
H1126       H  0.19028841  0.17651376  0.86217585     0.11300
H1127       H  0.19849367  0.11223688  0.83441263     0.11300
H1128       H  0.29998474  0.09376196  0.90622378     0.11300
C1129       C  0.58908786  0.87678261  0.21297831    -0.14800
C1130       C  0.59364056  0.85379347  0.24627390     0.07300
C1131       C  0.62579728  0.86079438  0.27074687    -0.14800
C1132       C  0.65218321  0.89085922  0.26270244    -0.14800
C1133       C  0.64653434  0.91509444  0.23042787     0.07300
C1134       C  0.61504943  0.90726615  0.20531539    -0.14800
H1135       H  0.56446938  0.87232678  0.19378962     0.11300
H1136       H  0.63007814  0.84347772  0.29663813     0.11300
H1137       H  0.67632742  0.89583204  0.28235310     0.11300
H1138       H  0.61019456  0.92502586  0.17984204     0.11300
C1139       C  0.62981437  0.08630264  0.26887924    -0.14800
C1140       C  0.64957333  0.08913608  0.23331249     0.07300
C1141       C  0.64082136  0.12033234  0.20835960    -0.14800
C1142       C  0.61202938  0.14734824  0.21818724    -0.14800
C1143       C  0.59093172  0.14333331  0.25285710     0.07300
C1144       C  0.60060391  0.11292393  0.27839729    -0.14800
H1145       H  0.63579102  0.06260528  0.28862143     0.11300
H1146       H  0.65570828  0.12338648  0.18076470     0.11300
H1147       H  0.60537612  0.17055211  0.19808044     0.11300
H1148       H  0.58518276  0.10939966  0.30563967     0.11300
C1149       C  0.76426540  0.12911321  0.11981502    -0.14800
C1150       C  0.74404782  0.09795820  0.10251786     0.07300
C1151       C  0.72417903  0.10414342  0.06748091    -0.14800
C1152       C  0.72755055  0.13988269  0.04840800    -0.14800
C1153       C  0.74981182  0.17011774  0.06470123     0.07300
C1154       C  0.76705365  0.16493055  0.10110577    -0.14800
H1155       H  0.77915661  0.12531188  0.14721693     0.11300
H1156       H  0.70823726  0.08069970  0.05368842     0.11300
H1157       H  0.71511463  0.14304629  0.01965769     0.11300
H1158       H  0.78528664  0.18747234  0.11354519     0.11300
C1159       C  0.77799677  0.89725062  0.08642014    -0.14800
C1160       C  0.74021083  0.90786716  0.09733494     0.07300
C1161       C  0.70955479  0.88100772  0.09171679    -0.14800
C1162       C  0.71651801  0.84507137  0.07331642    -0.14800
C1163       C  0.75429988  0.83560754  0.06097731     0.07300
C1164       C  0.78492624  0.86163219  0.06884477    -0.14800
H1165       H  0.80243985  0.91661932  0.09128645     0.11300
H1166       H  0.68018333  0.88821448  0.10057874     0.11300
H1167       H  0.69235243  0.82579166  0.06703634     0.11300
H1168       H  0.81438669  0.85508510  0.05965756     0.11300
C1169       C  0.84921243  0.91694097  0.26932865    -0.14800
C1170       C  0.83819971  0.92073951  0.23009818     0.07300
C1171       C  0.86409705  0.90798565  0.20113649    -0.14800
C1172       C  0.90093319  0.89420035  0.21091444    -0.14800
C1173       C  0.91258832  0.89172376  0.24993787     0.07300
C1174       C  0.88591974  0.90198891  0.27918218    -0.14800
H1175       H  0.82997369  0.92661812  0.29231075     0.11300
H1176       H  0.85672996  0.91043586  0.17063048     0.11300
H1177       H  0.92039998  0.88543385  0.18774174     0.11300
H1178       H  0.89388202  0.89953530  0.30952885     0.11300
C1179       C  0.86468712  0.06098895  0.26894406    -0.14800
C1180       C  0.83627125  0.07403321  0.24269097     0.07300
C1181       C  0.84378695  0.10723443  0.22051766    -0.14800
C1182       C  0.87975807  0.12605331  0.22303893    -0.14800
C1183       C  0.90907179  0.11205278  0.24787460     0.07300
C1184       C  0.90067419  0.08019551  0.27194630    -0.14800
H1185       H  0.85996230  0.03452432  0.28526759     0.11300
H1186       H  0.82281504  0.11703982  0.19927826     0.11300
H1187       H  0.88505980  0.15087247  0.20450355     0.11300
H1188       H  0.92256255  0.06893925  0.29153594     0.11300
C1189       C  0.37278629  0.88288021  0.19910101    -0.14800
C1190       C  0.36365371  0.91318219  0.22508020     0.07300
C1191       C  0.38287453  0.91499785  0.26097958    -0.14800
C1192       C  0.41194350  0.88816745  0.26996136    -0.14800
C1193       C  0.42201366  0.85867531  0.24345630     0.07300
C1194       C  0.40146632  0.85568812  0.20834427    -0.14800
H1195       H  0.35820591  0.88058757  0.17126891     0.11300
H1196       H  0.37645429  0.93796510  0.28152914     0.11300
H1197       H  0.42681746  0.89071684  0.29760910     0.11300
H1198       H  0.40832167  0.83304322  0.18757673     0.11300
C1199       C  0.36256411  0.10231128  0.26522460    -0.14800
C1200       C  0.36491384  0.08505238  0.22837197     0.07300
C1201       C  0.39352228  0.09814492  0.20213672    -0.14800
C1202       C  0.41993555  0.12730100  0.21298003    -0.14800
C1203       C  0.41856653  0.14343562  0.25047083     0.07300
C1204       C  0.38924413  0.13095166  0.27625281    -0.14800
H1205       H  0.34080588  0.09285010  0.28598001     0.11300
H1206       H  0.39563058  0.08562396  0.17331210     0.11300
H1207       H  0.44219457  0.13623909  0.19253432     0.11300
H1208       H  0.38731370  0.14285488  0.30535347     0.11300
C1209       C  0.24267902  0.87278098  0.11549207    -0.14800
C1210       C  0.26514080  0.90270445  0.09885631     0.07300
C1211       C  0.28691571  0.89478156  0.06524780    -0.14800
C1212       C  0.28334895  0.85858808  0.04680098    -0.14800
C1213       C  0.25893271  0.82969270  0.06239766     0.07300
C1214       C  0.23965684  0.83663555  0.09746821    -0.14800
H1215       H  0.22610729  0.87781220  0.14175728     0.11300
H1216       H  0.30465415  0.91719382  0.05200924     0.11300
H1217       H  0.29739675  0.85409390  0.01895319     0.11300
H1218       H  0.21978338  0.81519395  0.10926307     0.11300
C1219       C  0.28454112  0.12589554  0.09930236    -0.14800
C1220       C  0.26911352  0.08986226  0.08715589     0.07300
C1221       C  0.24629401  0.08824911  0.05363139    -0.14800
C1222       C  0.23806325  0.12189161  0.03309044    -0.14800
C1223       C  0.25171801  0.15845087  0.04586385     0.07300
C1224       C  0.27572315  0.16011029  0.07885572    -0.14800
H1225       H  0.30202508  0.12777435  0.12544014     0.11300
H1226       H  0.23429340  0.06090293  0.04352812     0.11300
H1227       H  0.22003746  0.11912437  0.00739899     0.11300
H1228       H  0.28667438  0.18771075  0.08935941     0.11300
C1229       C  0.14860059  0.94170053  0.26712616    -0.14800
C1230       C  0.17732828  0.92686395  0.24211651     0.07300
C1231       C  0.17053807  0.89177048  0.22274331    -0.14800
C1232       C  0.13458864  0.87305933  0.22621703    -0.14800
C1233       C  0.10477618  0.88903654  0.24932360     0.07300
C1234       C  0.11270700  0.92260096  0.27118077    -0.14800
H1235       H  0.15295100  0.96945320  0.28138686     0.11300
H1236       H  0.19192725  0.88038446  0.20265541     0.11300
H1237       H  0.12960337  0.84678789  0.20957445     0.11300
H1238       H  0.09042633  0.93533685  0.28943359     0.11300
C1239       C  0.14832655  0.09315918  0.19989056    -0.14800
C1240       C  0.17340326  0.07865197  0.22862995     0.07300
C1241       C  0.16168347  0.08058202  0.26781936    -0.14800
C1242       C  0.12526556  0.09613751  0.27780107    -0.14800
C1243       C  0.09970573  0.10883203  0.24862105     0.07300
C1244       C  0.11183593  0.10755683  0.20971825    -0.14800
H1245       H  0.15615966  0.09196588  0.16941413     0.11300
H1246       H  0.18018627  0.06922574  0.29057399     0.11300
H1247       H  0.11670818  0.09737621  0.30807674     0.11300
H1248       H  0.09310616  0.11800393  0.18668766     0.11300
loop_ 
_geom_bond_atom_site_label_1 
_geom_bond_atom_site_label_2 
_geom_bond_distance 
_geom_bond_site_symmetry_2 
_ccdc_geom_bond_type 
O1          Cr19   1.958   1_565  S
O1            C9   1.257       .  A
O2          Cr19   1.990   1_565  S
O2            C3   1.260       .  A
C3            O4   1.264       .  A
C3         C1230   1.465       .  S
O4          Cr20   1.998   1_565  S
O5          Cr20   2.026   1_565  S
O5            C6   1.272       .  A
C6            O7   1.257       .  A
C6         C1190   1.478       .  S
O7          Cr21   1.959       .  S
O8          Cr21   2.024       .  S
O8            C9   1.270       .  A
C9         C1210   1.479       .  S
O10         Cr19   2.006       .  S
O10          C18   1.264       .  A
O11         Cr19   1.961       .  S
O11          C12   1.261       .  A
C12          O13   1.272       .  A
C12        C1240   1.480       .  S
O13         Cr20   2.029       .  S
O14         Cr20   1.982       .  S
O14          C15   1.263       .  A
C15          O16   1.265       .  A
C15        C1200   1.479       .  S
O16         Cr21   2.000   1_545  S
O17         Cr21   1.979   1_545  S
O17          C18   1.254       .  A
C18        C1220   1.474       .  S
Cr19         O22   1.760       .  S
Cr20         O22   1.768       .  S
Cr21         O22   1.770   1_565  S
O23         Cr41   1.967   1_545  S
O23          C31   1.257       .  A
O24         Cr41   1.987   1_545  S
O24          C25   1.259       .  A
C25          O26   1.266       .  A
C25        C1180   1.467       .  S
O26         Cr42   2.005   1_545  S
O27         Cr42   2.034   1_545  S
O27          C28   1.274       .  A
C28          O29   1.258       .  A
C28        C1140   1.483       .  S
O29         Cr43   1.963       .  S
O30         Cr43   2.019       .  S
O30          C31   1.268       .  A
C31        C1150   1.477       .  S
O32         Cr41   2.001       .  S
O32          C40   1.265       .  A
O33         Cr41   1.966       .  S
O33          C34   1.261       .  A
C34          O35   1.272       .  A
C34        C1170   1.484       .  S
O35         Cr42   2.030       .  S
O36         Cr42   1.995       .  S
O36          C37   1.265       .  A
C37          O38   1.265       .  A
C37        C1133   1.487       .  S
O38         Cr43   1.998   1_565  S
O39         Cr43   1.982   1_565  S
O39          C40   1.256       .  A
C40        C1160   1.481       .  S
Cr41         O44   1.762   1_565  S
Cr42         O44   1.768   1_565  S
Cr43         O44   1.774       .  S
O45         Cr63   1.998       .  S
O45          C53   1.261       .  A
O46         Cr63   1.971       .  S
O46          C47   1.262       .  A
C47          O48   1.268       .  A
C47        C1120   1.475       .  S
O48         Cr64   2.015       .  S
O49         Cr64   1.995       .  S
O49          C50   1.264       .  A
C50          O51   1.264       .  A
C50        C1080   1.477       .  S
O51         Cr65   2.003       .  S
O52         Cr65   1.992       .  S
O52          C53   1.256       .  A
C53        C1113   1.473       .  S
O54         Cr63   1.953   1_554  S
O54          C62   1.256       .  A
O55         Cr63   1.976       .  S
O55          C56   1.261   1_556  A
C56          O57   1.271       .  A
C56        C1223   1.484       .  S
O57         Cr64   2.016   1_554  S
O58         Cr64   2.032   1_554  S
O58          C59   1.272       .  A
C59          O60   1.257       .  A
C59        C1090   1.480       .  S
O60         Cr65   1.960   1_554  S
O61         Cr65   2.026   1_554  S
O61          C62   1.271       .  A
C62        C1100   1.484       .  S
Cr63         O66   1.759       .  S
Cr64         O66   1.767       .  S
Cr65         O66   1.768       .  S
O67         Cr85   1.968   1_554  S
O67          C75   1.258       .  A
O68         Cr85   1.987   1_554  S
O68          C69   1.259       .  A
C69          O70   1.263       .  A
C69        C1213   1.462       .  S
O70         Cr86   1.995   1_554  S
O71         Cr86   2.039   1_554  S
O71          C72   1.276       .  A
C72          O73   1.257       .  A
C72        C1030   1.486       .  S
O73         Cr87   1.954   1_554  S
O74         Cr87   2.025   1_554  S
O74          C75   1.270       .  A
C75        C1060   1.481       .  S
O76         Cr85   2.001       .  S
O76          C84   1.265       .  A
O77         Cr85   1.960       .  S
O77          C78   1.260       .  A
C78          O79   1.274       .  A
C78        C1070   1.485       .  S
O79         Cr86   2.039       .  S
O80         Cr86   1.985       .  S
O80          C81   1.262       .  A
C81          O82   1.264       .  A
C81        C1040   1.480       .  S
O82         Cr87   1.997       .  S
O83         Cr87   1.977       .  S
O83          C84   1.254       .  A
C84        C1050   1.479       .  S
Cr85         O88   1.760       .  S
Cr86         O88   1.769       .  S
Cr87         O88   1.774       .  S
O89        Cr107   1.981       .  S
O89          C97   1.259       .  A
O90        Cr107   1.973       .  S
O90          C91   1.260       .  A
C91          O92   1.268       .  A
C91        C1110   1.479       .  S
O92        Cr108   2.013       .  S
O93        Cr108   2.028       .  S
O93          C94   1.274       .  A
C94          O95   1.260       .  A
C94         C990   1.472       .  S
O95        Cr109   1.956       .  S
O96        Cr109   2.015       .  S
O96          C97   1.266       .  A
C97        C1010   1.480       .  S
O98        Cr107   1.997   1_655  S
O98         C106   1.266       .  A
O99        Cr107   1.971   1_655  S
O99         C100   1.263       .  A
C100        O101   1.269       .  A
C100       C1020   1.480       .  S
O101       Cr108   2.013   1_655  S
O102       Cr108   2.000   1_655  S
O102        C103   1.262       .  A
C103        O104   1.260       .  A
C103        C980   1.476       .  S
O104       Cr109   1.994   1_655  S
O105       Cr109   1.986   1_655  S
O105        C106   1.258       .  A
C106       C1000   1.479       .  S
Cr107       O110   1.757       .  S
Cr108       O110   1.768       .  S
Cr109       O110   1.773       .  S
O111       Cr129   1.965   1_655  S
O111        C119   1.260       .  A
O112       Cr129   1.982   1_655  S
O112        C113   1.257       .  A
C113        O114   1.265       .  A
C113        C970   1.464       .  S
O114       Cr130   2.005   1_655  S
O115       Cr130   2.024   1_655  S
O115        C116   1.273       .  A
C116        O117   1.258       .  A
C116        C950   1.480       .  S
O117       Cr131   1.958   1_655  S
O118       Cr131   2.023   1_655  S
O118        C119   1.271       .  A
C119       C1183   1.482       .  S
O120       Cr129   1.989       .  S
O120        C128   1.259       .  A
O121       Cr129   1.962       .  S
O121        C122   1.261       .  A
C122        O123   1.273       .  A
C122       C1103   1.480       .  S
O123       Cr130   2.036       .  S
O124       Cr130   1.995       .  S
O124        C125   1.266       .  A
C125        O126   1.264       .  A
C125        C960   1.485       .  S
O126       Cr131   1.996       .  S
O127       Cr131   1.988       .  S
O127        C128   1.256       .  A
C128       C1243   1.474       .  S
Cr129       O132   1.760       .  S
Cr130       O132   1.768       .  S
Cr131       O132   1.775       .  S
O133       Cr151   1.964       .  S
O133        C141   1.258       .  A
O134       Cr151   1.987       .  S
O134        C135   1.259       .  A
C135        O136   1.266       .  A
C135       C1063   1.468       .  S
O136       Cr152   2.005       .  S
O137       Cr152   2.033       .  S
O137        C138   1.275       .  A
C138        O139   1.259       .  A
C138        C920   1.483       .  S
O139       Cr153   1.958       .  S
O140       Cr153   2.025       .  S
O140        C141   1.271       .  A
C141       C1233   1.481       .  S
O142       Cr151   1.992   1_655  S
O142        C150   1.262       .  A
O143       Cr151   1.959   1_655  S
O143        C144   1.259       .  A
C144        O145   1.273       .  A
C144        C940   1.478       .  S
O145       Cr152   2.036   1_655  S
O146       Cr152   2.000   1_655  S
O146        C147   1.264       .  A
C147        O148   1.263       .  A
C147        C930   1.476       .  S
O148       Cr153   2.000   1_655  S
O149       Cr153   1.991   1_655  S
O149        C150   1.257       .  A
C150       C1173   1.480       .  S
Cr151       O154   1.760       .  S
Cr152       O154   1.765       .  S
Cr153       O154   1.775       .  S
O155       Cr173   1.983       .  S
O155        C163   1.256       .  A
O156       Cr173   1.960       .  S
O156        C157   1.261       .  A
C157        O158   1.274       .  A
C157        C910   1.480       .  S
O158       Cr174   2.036       .  S
O159       Cr174   1.992       .  S
O159        C160   1.266       .  A
C160        O161   1.265       .  A
C160        C880   1.478       .  S
O161       Cr175   1.994       .  S
O162       Cr175   1.988       .  S
O162        C163   1.253       .  A
C163        C900   1.474       .  S
O164       Cr173   1.957   1_554  S
O164        C172   1.259       .  A
O165       Cr173   1.970   1_554  S
O165        C166   1.256       .  A
C166        O167   1.269       .  A
C166       C1163   1.476       .  S
O167       Cr174   2.024   1_554  S
O168       Cr174   2.026   1_554  S
O168        C169   1.271       .  A
C169        O170   1.258       .  A
C169        C890   1.483       .  S
O170       Cr175   1.960   1_554  S
O171       Cr175   2.027   1_554  S
O171        C172   1.273       .  A
C172        C943   1.483       .  S
Cr173       O176   1.759       .  S
Cr174       O176   1.776       .  S
Cr175       O176   1.773       .  S
O177       Cr195   1.946   1_545  S
O177        C185   1.257       .  A
O178       Cr195   1.991   1_545  S
O178        C179   1.259       .  A
C179        O180   1.267       .  A
C179       C1013   1.469       .  S
O180       Cr196   2.010   1_545  S
O181       Cr196   2.030   1_545  S
O181        C182   1.272       .  A
C182        O183   1.258       .  A
C182        C850   1.485       .  S
O183       Cr197   1.965       .  S
O184       Cr197   2.027       .  S
O184        C185   1.274       .  A
C185       C1123   1.478       .  S
O186       Cr195   1.989       .  S
O186        C194   1.258       .  A
O187       Cr195   1.953       .  S
O187        C188   1.257       .  A
C188        O189   1.273       .  A
C188        C870   1.471       .  S
O189       Cr196   2.036       .  S
O190       Cr196   1.984       .  S
O190        C191   1.264       .  A
C191        O192   1.268       .  A
C191        C860   1.486       .  S
O192       Cr197   2.006   1_565  S
O193       Cr197   1.992   1_565  S
O193        C194   1.255       .  A
C194       C1073   1.479       .  S
Cr195       O198   1.759       .  S
Cr196       O198   1.767       .  S
Cr197       O198   1.769   1_545  S
O199       Cr217   1.983       .  S
O199        C207   1.258       .  A
O200       Cr217   1.962       .  S
O200        C201   1.260       .  A
C201        O202   1.272       .  A
C201        C903   1.479       .  S
O202       Cr218   2.030   1_655  S
O203       Cr218   1.988   1_655  S
O203        C204   1.265       .  A
C204        O205   1.264       .  A
C204        C820   1.478       .  S
O205       Cr219   1.992   1_655  S
O206       Cr219   1.992   1_655  S
O206        C207   1.255       .  A
C207        C840   1.475       .  S
O208       Cr217   1.949   1_455  S
O208        C216   1.257       .  A
O209       Cr217   1.971   1_455  S
O209        C210   1.258       .  A
C210        O211   1.269       .  A
C210       C1053   1.474       .  S
O211       Cr218   2.017       .  S
O212       Cr218   2.029       .  S
O212        C213   1.272       .  A
C213        O214   1.258       .  A
C213        C830   1.484       .  S
O214       Cr219   1.965       .  S
O215       Cr219   2.016       .  S
O215        C216   1.270       .  A
C216        C873   1.476       .  S
Cr217       O220   1.759   1_655  S
Cr218       O220   1.770       .  S
Cr219       O220   1.774       .  S
O221       Cr239   1.966   1_554  S
O221        C229   1.259       .  A
O222       Cr239   1.984   1_554  S
O222        C223   1.258       .  A
C223        O224   1.263       .  A
C223       C1153   1.461       .  S
O224       Cr240   1.998   1_554  S
O225       Cr240   2.035   1_554  S
O225        C226   1.275       .  A
C226        O227   1.259       .  A
C226        C790   1.487       .  S
O227       Cr241   1.959   1_554  S
O228       Cr241   2.023   1_554  S
O228        C229   1.271       .  A
C229        C973   1.478       .  S
O230       Cr239   1.992       .  S
O230        C238   1.260       .  A
O231       Cr239   1.957       .  S
O231        C232   1.259       .  A
C232        O233   1.275       .  A
C232        C810   1.479       .  S
O233       Cr240   2.043       .  S
O234       Cr240   1.990       .  S
O234        C235   1.264       .  A
C235        O236   1.265       .  A
C235        C800   1.483       .  S
O236       Cr241   1.998       .  S
O237       Cr241   1.982       .  S
O237        C238   1.255       .  A
C238       C1023   1.475       .  S
Cr239       O242   1.761       .  S
Cr240       O242   1.769       .  S
Cr241       O242   1.773       .  S
O243       Cr261   1.984       .  S
O243        C251   1.259       .  A
O244       Cr261   1.962       .  S
O244        C245   1.260       .  A
C245        O246   1.272       .  A
C245        C843   1.481       .  S
O246       Cr262   2.032       .  S
O247       Cr262   1.991       .  S
O247        C248   1.263       .  A
C248        O249   1.264       .  A
C248        C770   1.472       .  S
O249       Cr263   2.003   1_565  S
O250       Cr263   1.994   1_565  S
O250        C251   1.256       .  A
C251        C913   1.475       .  S
O252       Cr261   1.953   1_545  S
O252        C260   1.257       .  A
O253       Cr261   1.977   1_545  S
O253        C254   1.260       .  A
C254        O255   1.267       .  A
C254       C1003   1.472       .  S
O255       Cr262   2.008   1_545  S
O256       Cr262   2.032   1_545  S
O256        C257   1.274       .  A
C257        O258   1.256       .  A
C257        C780   1.478       .  S
O258       Cr263   1.950       .  S
O259       Cr263   2.028       .  S
O259        C260   1.272       .  A
C260        C813   1.483       .  S
Cr261       O264   1.755       .  S
Cr262       O264   1.768       .  S
Cr263       O264   1.773   1_545  S
O265       Cr283   1.993       .  S
O265        C273   1.262       .  A
O266       Cr283   1.965       .  S
O266        C267   1.261       .  A
C267        O268   1.273       .  A
C267        C750   1.482       .  S
O268       Cr284   2.033       .  S
O269       Cr284   1.998       .  S
O269        C270   1.265       .  A
C270        O271   1.262       .  A
C270       C1143   1.482       .  S
O271       Cr285   1.989       .  S
O272       Cr285   1.989       .  S
O272        C273   1.256       .  A
C273        C730   1.480       .  S
O274       Cr283   1.965       .  S
O274        C282   1.257       .  A
O275       Cr283   1.975       .  S
O275        C276   1.259       .  A
C276        O277   1.267       .  A
C276        C760   1.474       .  S
O277       Cr284   2.009       .  S
O278       Cr284   2.034       .  S
O278        C279   1.275       .  A
C279        O280   1.259       .  A
C279       C1203   1.482       .  S
O280       Cr285   1.960       .  S
O281       Cr285   2.020       .  S
O281        C282   1.268       .  A
C282        C740   1.476       .  S
Cr283       O286   1.759       .  S
Cr284       O286   1.771       .  S
Cr285       O286   1.775       .  S
O287       Cr305   1.948       .  S
O287        C295   1.258       .  A
O288       Cr305   1.995       .  S
O288        C289   1.260       .  A
C289        O290   1.265       .  A
C289        C710   1.467       .  S
O290       Cr306   2.002       .  S
O291       Cr306   2.031       .  S
O291        C292   1.273       .  A
C292        O293   1.257       .  A
C292       C1033   1.486       .  S
O293       Cr307   1.960       .  S
O294       Cr307   2.027       .  S
O294        C295   1.273       .  A
C295        C700   1.479       .  S
O296       Cr305   1.992       .  S
O296        C304   1.260       .  A
O297       Cr305   1.953       .  S
O297        C298   1.257       .  A
C298        O299   1.273       .  A
C298        C723   1.473       .  S
O299       Cr306   2.039       .  S
O300       Cr306   1.981       .  S
O300        C301   1.263       .  A
C301        O302   1.267       .  A
C301       C1093   1.481       .  S
O302       Cr307   2.001       .  S
O303       Cr307   1.989       .  S
O303        C304   1.254       .  A
C304        C763   1.479       .  S
Cr305       O308   1.759       .  S
Cr306       O308   1.768       .  S
Cr307       O308   1.774       .  S
O309       Cr327   1.989       .  S
O309        C317   1.259       .  A
O310       Cr327   1.953       .  S
O310        C311   1.257       .  A
C311        O312   1.273       .  A
C311        C690   1.479       .  S
O312       Cr328   2.041       .  S
O313       Cr328   1.974       .  S
O313        C314   1.262       .  A
C314        O315   1.266       .  A
C314        C993   1.477       .  S
O315       Cr329   2.002       .  S
O316       Cr329   1.984       .  S
O316        C317   1.256       .  A
C317        C680   1.475       .  S
O318       Cr327   1.952       .  S
O318        C326   1.258       .  A
O319       Cr327   1.991       .  S
O319        C320   1.260       .  A
C320        O321   1.263       .  A
C320        C743   1.461       .  S
O321       Cr328   1.995       .  S
O322       Cr328   2.033       .  S
O322        C323   1.274       .  A
C323        O324   1.258       .  A
C323        C963   1.481       .  S
O324       Cr329   1.961       .  S
O325       Cr329   2.021       .  S
O325        C326   1.271       .  A
C326        C720   1.477       .  S
Cr327       O330   1.757       .  S
Cr328       O330   1.767       .  S
Cr329       O330   1.771       .  S
O331       Cr349   1.968       .  S
O331        C339   1.259       .  A
O332       Cr349   1.976       .  S
O332        C333   1.259       .  A
C333        O334   1.267       .  A
C333        C660   1.483       .  S
O334       Cr350   2.012       .  S
O335       Cr350   2.032       .  S
O335        C336   1.275       .  A
C336        O337   1.258       .  A
C336        C923   1.483       .  S
O337       Cr351   1.956       .  S
O338       Cr351   2.023       .  S
O338        C339   1.269       .  A
C339        C713   1.478       .  S
O340       Cr349   1.997       .  S
O340        C348   1.263       .  A
O341       Cr349   1.966       .  S
O341        C342   1.263       .  A
C342        O343   1.273       .  A
C342        C670   1.483       .  S
O343       Cr350   2.032       .  S
O344       Cr350   1.992       .  S
O344        C345   1.263       .  A
C345        O346   1.263       .  A
C345        C833   1.481       .  S
O346       Cr351   1.992       .  S
O347       Cr351   1.985       .  S
O347        C348   1.254       .  A
C348        C650   1.479       .  S
Cr349       O352   1.758       .  S
Cr350       O352   1.773       .  S
Cr351       O352   1.778       .  S
O353       Cr371   1.988       .  S
O353        C361   1.261       .  A
O354       Cr371   1.968       .  S
O354        C355   1.261       .  A
C355        O356   1.269       .  A
C355        C683   1.479       .  S
O356       Cr372   2.016       .  S
O357       Cr372   1.999       .  S
O357        C358   1.263       .  A
C358        O359   1.263       .  A
C358       C1083   1.479       .  S
O359       Cr373   2.002       .  S
O360       Cr373   1.988       .  S
O360        C361   1.257       .  A
C361        C630   1.471       .  S
O362       Cr371   1.968       .  S
O362        C370   1.258       .  A
O363       Cr371   1.968       .  S
O363        C364   1.259       .  A
C364        O365   1.269       .  A
C364        C653   1.476       .  S
O365       Cr372   2.013       .  S
O366       Cr372   2.028       .  S
O366        C367   1.274       .  A
C367        O368   1.259       .  A
C367       C1043   1.475       .  S
O368       Cr373   1.960       .  S
O369       Cr373   2.021       .  S
O369        C370   1.268       .  A
C370        C640   1.481       .  S
Cr371       O374   1.758       .  S
Cr372       O374   1.769       .  S
Cr373       O374   1.775       .  S
O375       Cr393   1.998       .  S
O375        C383   1.260       .  A
O376       Cr393   1.967       .  S
O376        C377   1.263       .  A
C377        O378   1.272       .  A
C377        C703   1.476       .  S
O378       Cr394   2.028       .  S
O379       Cr394   1.986       .  S
O379        C380   1.265       .  A
C380        O381   1.266       .  A
C380       C1193   1.478       .  S
O381       Cr395   1.996       .  S
O382       Cr395   1.993       .  S
O382        C383   1.255       .  A
C383        C663   1.475       .  S
O384       Cr393   1.955       .  S
O384        C392   1.257       .  A
O385       Cr393   1.973       .  S
O385        C386   1.258       .  A
C386        O387   1.268       .  A
C386        C620   1.472       .  S
O387       Cr394   2.013       .  S
O388       Cr394   2.032       .  S
O388        C389   1.272       .  A
C389        O390   1.257       .  A
C389       C1130   1.484       .  S
O390       Cr395   1.967       .  S
O391       Cr395   2.027       .  S
O391        C392   1.272       .  A
C392        C610   1.484       .  S
Cr393       O396   1.759       .  S
Cr394       O396   1.772       .  S
Cr395       O396   1.765       .  S
O397       Cr415   1.954       .  S
O397        C405   1.259       .  A
O398       Cr415   1.992       .  S
O398        C399   1.260       .  A
C399        O400   1.265       .  A
C399        C590   1.464       .  S
O400       Cr416   2.000       .  S
O401       Cr416   2.031       .  S
O401        C402   1.273       .  A
C402        O403   1.257       .  A
C402        C793   1.487       .  S
O403       Cr417   1.961       .  S
O404       Cr417   2.034       .  S
O404        C405   1.275       .  A
C405        C753   1.486       .  S
O406       Cr415   1.992       .  S
O406        C414   1.260       .  A
O407       Cr415   1.957       .  S
O407        C408   1.258       .  A
C408        O409   1.273       .  A
C408        C600   1.481       .  S
O409       Cr416   2.040       .  S
O410       Cr416   1.979       .  S
O410        C411   1.263       .  A
C411        O412   1.268       .  A
C411        C893   1.480       .  S
O412       Cr417   2.005       .  S
O413       Cr417   1.982       .  S
O413        C414   1.252       .  A
C414        C623   1.478       .  S
Cr415       O418   1.759       .  S
Cr416       O418   1.770       .  S
Cr417       O418   1.771       .  S
O419       Cr437   1.961       .  S
O419        C427   1.258       .  A
O420       Cr437   1.972       .  S
O420        C421   1.260       .  A
C421        O422   1.270       .  A
C421        C580   1.482       .  S
O422       Cr438   2.018       .  S
O423       Cr438   2.038       .  S
O423        C424   1.275       .  A
C424        O425   1.256       .  A
C424        C823   1.478       .  S
O425       Cr439   1.952       .  S
O426       Cr439   2.026       .  S
O426        C427   1.271       .  A
C427        C570   1.485       .  S
O428       Cr437   1.988       .  S
O428        C436   1.260       .  A
O429       Cr437   1.967       .  S
O429        C430   1.261       .  A
C430        O431   1.272       .  A
C430        C613   1.480       .  S
O431       Cr438   2.032       .  S
O432       Cr438   1.999       .  S
O432        C433   1.265       .  A
C433        O434   1.265       .  A
C433        C933   1.483       .  S
O434       Cr439   2.004       .  S
O435       Cr439   1.988       .  S
O435        C436   1.256       .  A
C436        C603   1.474       .  S
Cr437       O440   1.755       .  S
Cr438       O440   1.770       .  S
Cr439       O440   1.773       .  S
O441       Cr459   1.992       .  S
O441        C449   1.262       .  A
O442       Cr459   1.963       .  S
O442        C443   1.260       .  A
C443        O444   1.273       .  A
C443        C573   1.481       .  S
O444       Cr460   2.038       .  S
O445       Cr460   1.997       .  S
O445        C446   1.265       .  A
C446        O447   1.262       .  A
C446        C883   1.474       .  S
O447       Cr461   1.989       .  S
O448       Cr461   1.984       .  S
O448        C449   1.256       .  A
C449        C550   1.474       .  S
O450       Cr459   1.967       .  S
O450        C458   1.257       .  A
O451       Cr459   1.972       .  S
O451        C452   1.259       .  A
C452        O453   1.266       .  A
C452        C560   1.473       .  S
O453       Cr460   2.007       .  S
O454       Cr460   2.033       .  S
O454        C455   1.275       .  A
C455        O456   1.259       .  A
C455        C803   1.482       .  S
O456       Cr461   1.964       .  S
O457       Cr461   2.013       .  S
O457        C458   1.266       .  A
C458        C540   1.474       .  S
Cr459       O462   1.758       .  S
Cr460       O462   1.772       .  S
Cr461       O462   1.775       .  S
O463       Cr481   2.006       .  S
O463        C471   1.264       .  A
O464       Cr481   1.962       .  S
O464        C465   1.258       .  A
C465        O466   1.270       .  A
C465        C553   1.481       .  S
O466       Cr482   2.029       .  S
O467       Cr482   1.991       .  S
O467        C468   1.264       .  A
C468        O469   1.266       .  A
C468        C773   1.476       .  S
O469       Cr483   2.005       .  S
O470       Cr483   1.983       .  S
O470        C471   1.255       .  A
C471        C583   1.472       .  S
O472       Cr481   1.955       .  S
O472        C480   1.256       .  A
O473       Cr481   1.998       .  S
O473        C474   1.263       .  A
C474        O475   1.267       .  A
C474        C643   1.466       .  S
O475       Cr482   2.000       .  S
O476       Cr482   2.035       .  S
O476        C477   1.273       .  A
C477        O478   1.257       .  A
C477        C863   1.480       .  S
O478       Cr483   1.964       .  S
O479       Cr483   2.027       .  S
O479        C480   1.271       .  A
C480        C673   1.485       .  S
Cr481       O484   1.759       .  S
Cr482       O484   1.766       .  S
Cr483       O484   1.765       .  S
O485       Cr503   1.990       .  S
O485        C493   1.259       .  A
O486       Cr503   1.955       .  S
O486        C487   1.259       .  A
C487        O488   1.273       .  A
C487        C633   1.477       .  S
O488       Cr504   2.036       .  S
O489       Cr504   1.982       .  S
O489        C490   1.264       .  A
C490        O491   1.268       .  A
C490        C853   1.484       .  S
O491       Cr505   2.006       .  S
O492       Cr505   1.982       .  S
O492        C493   1.253       .  A
C493        C693   1.474       .  S
O494       Cr503   1.950       .  S
O494        C502   1.257       .  A
O495       Cr503   1.989       .  S
O495        C496   1.259       .  A
C496        O497   1.263       .  A
C496        C543   1.460       .  S
O497       Cr504   1.999       .  S
O498       Cr504   2.024       .  S
O498        C499   1.272       .  A
C499        O500   1.255       .  A
C499        C783   1.478       .  S
O500       Cr505   1.952       .  S
O501       Cr505   2.027       .  S
O501        C502   1.274       .  A
C502        C530   1.480       .  S
Cr503       O506   1.757       .  S
Cr504       O506   1.768       .  S
Cr505       O506   1.769       .  S
O507       Cr525   1.967       .  S
O507        C515   1.258       .  A
O508       Cr525   1.972       .  S
O508        C509   1.259       .  A
C509        O510   1.267       .  A
C509        C733   1.479       .  S
O510       Cr526   2.011       .  S
O511       Cr526   2.032       .  S
O511        C512   1.275       .  A
C512        O513   1.259       .  A
C512        C953   1.481       .  S
O513       Cr527   1.955       .  S
O514       Cr527   2.021       .  S
O514        C515   1.268       .  A
C515        C593   1.475       .  S
O516       Cr525   1.989       .  S
O516        C524   1.262       .  A
O517       Cr525   1.965       .  S
O517        C518   1.261       .  A
C518        O519   1.271       .  A
C518        C533   1.477       .  S
O519       Cr526   2.023       .  S
O520       Cr526   1.999       .  S
O520        C521   1.263       .  A
C521        O522   1.261       .  A
C521        C983   1.475       .  S
O522       Cr527   1.993       .  S
O523       Cr527   1.993       .  S
O523        C524   1.257       .  A
C524        C563   1.477       .  S
Cr525       O528   1.756       .  S
Cr526       O528   1.768       .  S
Cr527       O528   1.774       .  S
C529        C530   1.404       .  A
C529        C534   1.402       .  A
C529        H535   1.083       .  S
C530        C531   1.408       .  A
C531        C532   1.392       .  A
C531        H536   1.083       .  S
C532        C533   1.402       .  A
C532        H537   1.083       .  S
C533        C534   1.408       .  A
C534        H538   1.083       .  S
C539        C540   1.407       .  A
C539        C544   1.396       .  A
C539        H545   1.084       .  S
C540        C541   1.402       .  A
C541        C542   1.399       .  A
C541        H546   1.083       .  S
C542        C543   1.405       .  A
C542        H547   1.084       .  S
C543        C544   1.399       .  A
C544        H548   1.084       .  S
C549        C550   1.402       .  A
C549        C554   1.391       .  A
C549        H555   1.083       .  S
C550        C551   1.405       .  A
C551        C552   1.404       .  A
C551        H556   1.083       .  S
C552        C553   1.409       .  A
C552        H557   1.083       .  S
C553        C554   1.405       .  A
C554        H558   1.083       .  S
C559        C560   1.403       .  A
C559        C564   1.387       .  A
C559        H565   1.084       .  S
C560        C561   1.405       .  A
C561        C562   1.409       .  A
C561        H566   1.083       .  S
C562        C563   1.409       .  A
C562        H567   1.083       .  S
C563        C564   1.402       .  A
C564        H568   1.083       .  S
C569        C570   1.407       .  A
C569        C574   1.393       .  A
C569        H575   1.083       .  S
C570        C571   1.406       .  A
C571        C572   1.406       .  A
C571        H576   1.083       .  S
C572        C573   1.409       .  A
C572        H577   1.083       .  S
C573        C574   1.403       .  A
C574        H578   1.083       .  S
C579        C580   1.411       .  A
C579        C584   1.388       .  A
C579        H585   1.084       .  S
C580        C581   1.404       .  A
C581        C582   1.409       .  A
C581        H586   1.083       .  S
C582        C583   1.411       .  A
C582        H587   1.083       .  S
C583        C584   1.394       .  A
C584        H588   1.084       .  S
C589        C590   1.398       .  A
C589        C594   1.396       .  A
C589        H595   1.084       .  S
C590        C591   1.407       .  A
C591        C592   1.401       .  A
C591        H596   1.084       .  S
C592        C593   1.402       .  A
C592        H597   1.083       .  S
C593        C594   1.407       .  A
C594        H598   1.084       .  S
C599        C600   1.406       .  A
C599        C604   1.388       .  A
C599        H605   1.083       .  S
C600        C601   1.409       .  A
C601        C602   1.406       .  A
C601        H606   1.083       .  S
C602        C603   1.405       .  A
C602        H607   1.083       .  S
C603        C604   1.401       .  A
C604        H608   1.083       .  S
C609        C610   1.405       .  A
C609        C614   1.405       .  A
C609        H615   1.083       .  S
C610        C611   1.409       .  A
C611        C612   1.394       .  A
C611        H616   1.083       .  S
C612        C613   1.402       .  A
C612        H617   1.083       .  S
C613        C614   1.410       .  A
C614        H618   1.083       .  S
C619        C620   1.403       .  A
C619        C624   1.407       .  A
C619        H625   1.083       .  S
C620        C621   1.405       .  A
C621        C622   1.386       .  A
C621        H626   1.084       .  S
C622        C623   1.400       .  A
C622        H627   1.083       .  S
C623        C624   1.412       .  A
C624        H628   1.083       .  S
C629        C630   1.401       .  A
C629        C634   1.386       .  A
C629        H635   1.083       .  S
C630        C631   1.405       .  A
C631        C632   1.405       .  A
C631        H636   1.083       .  S
C632        C633   1.409       .  A
C632        H637   1.083       .  S
C633        C634   1.405       .  A
C634        H638   1.083       .  S
C639        C640   1.405       .  A
C639        C644   1.403       .  A
C639        H645   1.083       .  S
C640        C641   1.408       .  A
C641        C642   1.396       .  A
C641        H646   1.083       .  S
C642        C643   1.399       .  A
C642        H647   1.084       .  S
C643        C644   1.405       .  A
C644        H648   1.083       .  S
C649        C650   1.411       .  A
C649        C654   1.410       .  A
C649        H655   1.083       .  S
C650        C651   1.399       .  A
C651        C652   1.386       .  A
C651        H656   1.083       .  S
C652        C653   1.405       .  A
C652        H657   1.084       .  S
C653        C654   1.405       .  A
C654        H658   1.083       .  S
C659        C660   1.405       .  A
C659        C664   1.410       .  A
C659        H665   1.083       .  S
C660        C661   1.409       .  A
C661        C662   1.390       .  A
C661        H666   1.084       .  S
C662        C663   1.397       .  A
C662        H667   1.084       .  S
C663        C664   1.410       .  A
C664        H668   1.083       .  S
C669        C670   1.410       .  A
C669        C674   1.406       .  A
C669        H675   1.083       .  S
C670        C671   1.403       .  A
C671        C672   1.392       .  A
C671        H676   1.083       .  S
C672        C673   1.407       .  A
C672        H677   1.083       .  S
C673        C674   1.406       .  A
C674        H678   1.083       .  S
C679        C680   1.404       .  A
C679        C684   1.401       .  A
C679        H685   1.083       .  S
C680        C681   1.404       .  A
C681        C682   1.393       .  A
C681        H686   1.083       .  S
C682        C683   1.405       .  A
C682        H687   1.083       .  S
C683        C684   1.408       .  A
C684        H688   1.083       .  S
C689        C690   1.406       .  A
C689        C694   1.387       .  A
C689        H695   1.083       .  S
C690        C691   1.407       .  A
C691        C692   1.405       .  A
C691        H696   1.083       .  S
C692        C693   1.407       .  A
C692        H697   1.083       .  S
C693        C694   1.400       .  A
C694        H698   1.083       .  S
C699        C700   1.408       .  A
C699        C704   1.391       .  A
C699        H705   1.082       .  S
C700        C701   1.403       .  A
C701        C702   1.403       .  A
C701        H706   1.083       .  S
C702        C703   1.410       .  A
C702        H707   1.083       .  S
C703        C704   1.400       .  A
C704        H708   1.084       .  S
C709        C710   1.406       .  A
C709        C714   1.401       .  A
C709        H715   1.083       .  S
C710        C711   1.399       .  A
C711        C712   1.398       .  A
C711        H716   1.083       .  S
C712        C713   1.408       .  A
C712        H717   1.083       .  S
C713        C714   1.403       .  A
C714        H718   1.083       .  S
C719        C720   1.406       .  A
C719        C724   1.389       .  A
C719        H725   1.083       .  S
C720        C721   1.405       .  A
C721        C722   1.403       .  A
C721        H726   1.083       .  S
C722        C723   1.407       .  A
C722        H727   1.083       .  S
C723        C724   1.402       .  A
C724        H728   1.084       .  S
C729        C730   1.410       .  A
C729        C734   1.410       .  A
C729        H735   1.083       .  S
C730        C731   1.401       .  A
C731        C732   1.387       .  A
C731        H736   1.083       .  S
C732        C733   1.405       .  A
C732        H737   1.084       .  S
C733        C734   1.406       .  A
C734        H738   1.083       .  S
C739        C740   1.403       .  A
C739        C744   1.401       .  A
C739        H745   1.083       .  S
C740        C741   1.407       .  A
C741        C742   1.395       .  A
C741        H746   1.084       .  S
C742        C743   1.398       .  A
C742        H747   1.083       .  S
C743        C744   1.405       .  A
C744        H748   1.084       .  S
C749        C750   1.403       .  A
C749        C754   1.394       .  A
C749        H755   1.084       .  S
C750        C751   1.408       .  A
C751        C752   1.405       .  A
C751        H756   1.083       .  S
C752        C753   1.405       .  A
C752        H757   1.083       .  S
C753        C754   1.409       .  A
C754        H758   1.083       .  S
C759        C760   1.405       .  A
C759        C764   1.409       .  A
C759        H765   1.083       .  S
C760        C761   1.403       .  A
C761        C762   1.390       .  A
C761        H766   1.084       .  S
C762        C763   1.402       .  A
C762        H767   1.083       .  S
C763        C764   1.409       .  A
C764        H768   1.083       .  S
C769        C770   1.403       .  A
C769        C774   1.397       .  A
C769        H775   1.083       .  S
C770        C771   1.404       .  A
C771        C772   1.401       .  A
C771        H776   1.083       .  S
C772        C773   1.405       .  A
C772        H777   1.083       .  S
C773        C774   1.405       .  A
C774        H778   1.083       .  S
C779        C780   1.410       .  A
C779        C784   1.396       .  A
C779        H785   1.083       .  S
C780        C781   1.401       .  A
C781        C782   1.397       .  A
C781        H786   1.083       .  S
C782        C783   1.411       .  A
C782        H787   1.083       .  S
C783        C784   1.400       .  A
C784        H788   1.083       .  S
C789        C790   1.403       .  A
C789        C794   1.401       .  A
C789        H795   1.083       .  S
C790        C791   1.411       .  A
C791        C792   1.399       .  A
C791        H796   1.083       .  S
C792        C793   1.402       .  A
C792        H797   1.083       .  S
C793        C794   1.411       .  A
C794        H798   1.083       .  S
C799        C800   1.408       .  A
C799        C804   1.399       .  A
C799        H805   1.083       .  S
C800        C801   1.404       .  A
C801        C802   1.401       .  A
C801        H806   1.083       .  S
C802        C803   1.409       .  A
C802        H807   1.083       .  S
C803        C804   1.403       .  A
C804        H808   1.083       .  S
C809        C810   1.402       .  A
C809        C814   1.391       .  A
C809        H815   1.084       .  S
C810        C811   1.408       .  A
C811        C812   1.406       .  A
C811        H816   1.083       .  S
C812        C813   1.406       .  A
C812        H817   1.083       .  S
C813        C814   1.407       .  A
C814        H818   1.083       .  S
C819        C820   1.401       .  A
C819        C824   1.396       .  A
C819        H825   1.083       .  S
C820        C821   1.409       .  A
C821        C822   1.400       .  A
C821        H826   1.083       .  S
C822        C823   1.402       .  A
C822        H827   1.083       .  S
C823        C824   1.409       .  A
C824        H828   1.083       .  S
C829        C830   1.404       .  A
C829        C834   1.400       .  A
C829        H835   1.083       .  S
C830        C831   1.409       .  A
C831        C832   1.400       .  A
C831        H836   1.083       .  S
C832        C833   1.402       .  A
C832        H837   1.083       .  S
C833        C834   1.408       .  A
C834        H838   1.083       .  S
C839        C840   1.405       .  A
C839        C844   1.405       .  A
C839        H845   1.083       .  S
C840        C841   1.402       .  A
C841        C842   1.390       .  A
C841        H846   1.083       .  S
C842        C843   1.405       .  A
C842        H847   1.083       .  S
C843        C844   1.409       .  A
C844        H848   1.083       .  S
C849        C850   1.409       .  A
C849        C854   1.399       .  A
C849        H855   1.083       .  S
C850        C851   1.405       .  A
C851        C852   1.402       .  A
C851        H856   1.083       .  S
C852        C853   1.408       .  A
C852        H857   1.083       .  S
C853        C854   1.404       .  A
C854        H858   1.083       .  S
C859        C860   1.408       .  A
C859        C864   1.400       .  A
C859        H865   1.083       .  S
C860        C861   1.406       .  A
C861        C862   1.399       .  A
C861        H866   1.083       .  S
C862        C863   1.406       .  A
C862        H867   1.083       .  S
C863        C864   1.403       .  A
C864        H868   1.083       .  S
C869        C870   1.402       .  A
C869        C874   1.388       .  A
C869        H875   1.084       .  S
C870        C871   1.407       .  A
C871        C872   1.402       .  A
C871        H876   1.083       .  S
C872        C873   1.404       .  A
C872        H877   1.083       .  S
C873        C874   1.406       .  A
C874        H878   1.083       .  S
C879        C880   1.401       .  A
C879        C884   1.399       .  A
C879        H885   1.083       .  S
C880        C881   1.409       .  A
C881        C882   1.401       .  A
C881        H886   1.083       .  S
C882        C883   1.401       .  A
C882        H887   1.083       .  S
C883        C884   1.407       .  A
C884        H888   1.084       .  S
C889        C890   1.405       .  A
C889        C894   1.402       .  A
C889        H895   1.083       .  S
C890        C891   1.408       .  A
C891        C892   1.396       .  A
C891        H896   1.083       .  S
C892        C893   1.403       .  A
C892        H897   1.083       .  S
C893        C894   1.407       .  A
C894        H898   1.083       .  S
C899        C900   1.405       .  A
C899        C904   1.403       .  A
C899        H905   1.083       .  S
C900        C901   1.402       .  A
C901        C902   1.390       .  A
C901        H906   1.083       .  S
C902        C903   1.405       .  A
C902        H907   1.083       .  S
C903        C904   1.408       .  A
C904        H908   1.083       .  S
C909        C910   1.410       .  A
C909        C914   1.407       .  A
C909        H915   1.083       .  S
C910        C911   1.404       .  A
C911        C912   1.387       .  A
C911        H916   1.083       .  S
C912        C913   1.401       .  A
C912        H917   1.083       .  S
C913        C914   1.406       .  A
C914        H918   1.083       .  S
C919        C920   1.402       .  A
C919        C924   1.398       .  A
C919        H925   1.083       .  S
C920        C921   1.410       .  A
C921        C922   1.399       .  A
C921        H926   1.083       .  S
C922        C923   1.402       .  A
C922        H927   1.083       .  S
C923        C924   1.410       .  A
C924        H928   1.083       .  S
C929        C930   1.404       .  A
C929        C934   1.405       .  A
C929        H935   1.083       .  S
C930        C931   1.403       .  A
C931        C932   1.398       .  A
C931        H936   1.084       .  S
C932        C933   1.406       .  A
C932        H937   1.083       .  S
C933        C934   1.407       .  A
C934        H938   1.083       .  S
C939        C940   1.408       .  A
C939        C944   1.405       .  A
C939        H945   1.083       .  S
C940        C941   1.403       .  A
C941        C942   1.392       .  A
C941        H946   1.083       .  S
C942        C943   1.407       .  A
C942        H947   1.083       .  S
C943        C944   1.406       .  A
C944        H948   1.083       .  S
C949        C950   1.401       .  A
C949        C954   1.396       .  A
C949        H955   1.083       .  S
C950        C951   1.409       .  A
C951        C952   1.398       .  A
C951        H956   1.083       .  S
C952        C953   1.402       .  A
C952        H957   1.083       .  S
C953        C954   1.409       .  A
C954        H958   1.083       .  S
C959        C960   1.404       .  A
C959        C964   1.400       .  A
C959        H965   1.083       .  S
C960        C961   1.410       .  A
C961        C962   1.399       .  A
C961        H966   1.083       .  S
C962        C963   1.402       .  A
C962        H967   1.083       .  S
C963        C964   1.409       .  A
C964        H968   1.083       .  S
C969        C970   1.406       .  A
C969        C974   1.401       .  A
C969        H975   1.083       .  S
C970        C971   1.399       .  A
C971        C972   1.397       .  A
C971        H976   1.083       .  S
C972        C973   1.408       .  A
C972        H977   1.083       .  S
C973        C974   1.403       .  A
C974        H978   1.083       .  S
C979        C980   1.405       .  A
C979        C984   1.404       .  A
C979        H985   1.083       .  S
C980        C981   1.404       .  A
C981        C982   1.394       .  A
C981        H986   1.084       .  S
C982        C983   1.403       .  A
C982        H987   1.084       .  S
C983        C984   1.405       .  A
C984        H988   1.083       .  S
C989        C990   1.405       .  A
C989        C994   1.393       .  A
C989        H995   1.084       .  S
C990        C991   1.403       .  A
C991        C992   1.399       .  A
C991        H996   1.083       .  S
C992        C993   1.407       .  A
C992        H997   1.083       .  S
C993        C994   1.404       .  A
C994        H998   1.083       .  S
C999       C1000   1.410       .  A
C999       C1004   1.408       .  A
C999       H1005   1.083       .  S
C1000      C1001   1.401       .  A
C1001      C1002   1.387       .  A
C1001      H1006   1.083       .  S
C1002      C1003   1.403       .  A
C1002      H1007   1.084       .  S
C1003      C1004   1.404       .  A
C1004      H1008   1.083       .  S
C1009      C1010   1.408       .  A
C1009      C1014   1.401       .  A
C1009      H1015   1.083       .  S
C1010      C1011   1.403       .  A
C1011      C1012   1.399       .  A
C1011      H1016   1.083       .  S
C1012      C1013   1.405       .  A
C1012      H1017   1.084       .  S
C1013      C1014   1.401       .  A
C1014      H1018   1.083       .  S
C1019      C1020   1.405       .  A
C1019      C1024   1.395       .  A
C1019      H1025   1.083       .  S
C1020      C1021   1.408       .  A
C1021      C1022   1.400       .  A
C1021      H1026   1.083       .  S
C1022      C1023   1.404       .  A
C1022      H1027   1.083       .  S
C1023      C1024   1.404       .  A
C1024      H1028   1.083       .  S
C1029      C1030   1.411       .  A
C1029      C1034   1.398       .  A
C1029      H1035   1.083       .  S
C1030      C1031   1.402       .  A
C1031      C1032   1.401       .  A
C1031      H1036   1.083       .  S
C1032      C1033   1.412       .  A
C1032      H1037   1.083       .  S
C1033      C1034   1.401       .  A
C1034      H1038   1.083       .  S
C1039      C1040   1.407       .  A
C1039      C1044   1.397       .  A
C1039      H1045   1.083       .  S
C1040      C1041   1.404       .  A
C1041      C1042   1.398       .  A
C1041      H1046   1.083       .  S
C1042      C1043   1.407       .  A
C1042      H1047   1.083       .  S
C1043      C1044   1.402       .  A
C1044      H1048   1.083       .  S
C1049      C1050   1.412       .  A
C1049      C1054   1.408       .  A
C1049      H1055   1.083       .  S
C1050      C1051   1.400       .  A
C1051      C1052   1.389       .  A
C1051      H1056   1.083       .  S
C1052      C1053   1.406       .  A
C1052      H1057   1.084       .  S
C1053      C1054   1.402       .  A
C1054      H1058   1.083       .  S
C1059      C1060   1.409       .  A
C1059      C1064   1.399       .  A
C1059      H1065   1.083       .  S
C1060      C1061   1.403       .  A
C1061      C1062   1.402       .  A
C1061      H1066   1.083       .  S
C1062      C1063   1.407       .  A
C1062      H1067   1.083       .  S
C1063      C1064   1.399       .  A
C1064      H1068   1.083       .  S
C1069      C1070   1.408       .  A
C1069      C1074   1.406       .  A
C1069      H1075   1.083       .  S
C1070      C1071   1.407       .  A
C1071      C1072   1.393       .  A
C1071      H1076   1.083       .  S
C1072      C1073   1.403       .  A
C1072      H1077   1.083       .  S
C1073      C1074   1.406       .  A
C1074      H1078   1.083       .  S
C1079      C1080   1.404       .  A
C1079      C1084   1.398       .  A
C1079      H1085   1.083       .  S
C1080      C1081   1.406       .  A
C1081      C1082   1.404       .  A
C1081      H1086   1.083       .  S
C1082      C1083   1.405       .  A
C1082      H1087   1.083       .  S
C1083      C1084   1.405       .  A
C1084      H1088   1.083       .  S
C1089      C1090   1.404       .  A
C1089      C1094   1.400       .  A
C1089      H1095   1.083       .  S
C1090      C1091   1.408       .  A
C1091      C1092   1.397       .  A
C1091      H1096   1.083       .  S
C1092      C1093   1.403       .  A
C1092      H1097   1.083       .  S
C1093      C1094   1.407       .  A
C1094      H1098   1.083       .  S
C1099      C1100   1.406       .  A
C1099      C1104   1.406       .  A
C1099      H1105   1.083       .  S
C1100      C1101   1.408       .  A
C1101      C1102   1.391       .  A
C1101      H1106   1.083       .  S
C1102      C1103   1.402       .  A
C1102      H1107   1.084       .  S
C1103      C1104   1.410       .  A
C1104      H1108   1.083       .  S
C1109      C1110   1.404       .  A
C1109      C1114   1.409       .  A
C1109      H1115   1.083       .  S
C1110      C1111   1.408       .  A
C1111      C1112   1.390       .  A
C1111      H1116   1.084       .  S
C1112      C1113   1.396       .  A
C1112      H1117   1.084       .  S
C1113      C1114   1.410       .  A
C1114      H1118   1.083       .  S
C1119      C1120   1.410       .  A
C1119      C1124   1.400       .  A
C1119      H1125   1.083       .  S
C1120      C1121   1.400       .  A
C1121      C1122   1.392       .  A
C1121      H1126   1.083       .  S
C1122      C1123   1.409       .  A
C1122      H1127   1.083       .  S
C1123      C1124   1.402       .  A
C1124      H1128   1.083       .  S
C1129      C1130   1.403       .  A
C1129      C1134   1.401       .  A
C1129      H1135   1.083       .  S
C1130      C1131   1.409       .  A
C1131      C1132   1.402       .  A
C1131      H1136   1.083       .  S
C1132      C1133   1.404       .  A
C1132      H1137   1.083       .  S
C1133      C1134   1.409       .  A
C1134      H1138   1.083       .  S
C1139      C1140   1.402       .  A
C1139      C1144   1.399       .  A
C1139      H1145   1.083       .  S
C1140      C1141   1.410       .  A
C1141      C1142   1.401       .  A
C1141      H1146   1.083       .  S
C1142      C1143   1.402       .  A
C1142      H1147   1.083       .  S
C1143      C1144   1.409       .  A
C1144      H1148   1.083       .  S
C1149      C1150   1.407       .  A
C1149      C1154   1.396       .  A
C1149      H1155   1.081       .  S
C1150      C1151   1.402       .  A
C1151      C1152   1.401       .  A
C1151      H1156   1.083       .  S
C1152      C1153   1.406       .  A
C1152      H1157   1.083       .  S
C1153      C1154   1.398       .  A
C1154      H1158   1.083       .  S
C1159      C1160   1.400       .  A
C1159      C1164   1.388       .  A
C1159      H1165   1.083       .  S
C1160      C1161   1.412       .  A
C1161      C1162   1.410       .  A
C1161      H1166   1.083       .  S
C1162      C1163   1.404       .  A
C1162      H1167   1.083       .  S
C1163      C1164   1.406       .  A
C1164      H1168   1.084       .  S
C1169      C1170   1.408       .  A
C1169      C1174   1.405       .  A
C1169      H1175   1.083       .  S
C1170      C1171   1.406       .  A
C1171      C1172   1.394       .  A
C1171      H1176   1.083       .  S
C1172      C1173   1.404       .  A
C1172      H1177   1.083       .  S
C1173      C1174   1.406       .  A
C1174      H1178   1.083       .  S
C1179      C1180   1.405       .  A
C1179      C1184   1.404       .  A
C1179      H1185   1.083       .  S
C1180      C1181   1.399       .  A
C1181      C1182   1.396       .  A
C1181      H1186   1.081       .  S
C1182      C1183   1.407       .  A
C1182      H1187   1.082       .  S
C1183      C1184   1.405       .  A
C1184      H1188   1.083       .  S
C1189      C1190   1.409       .  A
C1189      C1194   1.398       .  A
C1189      H1195   1.083       .  S
C1190      C1191   1.402       .  A
C1191      C1192   1.397       .  A
C1191      H1196   1.083       .  S
C1192      C1193   1.408       .  A
C1192      H1197   1.083       .  S
C1193      C1194   1.403       .  A
C1194      H1198   1.083       .  S
C1199      C1200   1.402       .  A
C1199      C1204   1.396       .  A
C1199      H1205   1.083       .  S
C1200      C1201   1.408       .  A
C1201      C1202   1.401       .  A
C1201      H1206   1.083       .  S
C1202      C1203   1.404       .  A
C1202      H1207   1.083       .  S
C1203      C1204   1.408       .  A
C1204      H1208   1.083       .  S
C1209      C1210   1.408       .  A
C1209      C1214   1.393       .  A
C1209      H1215   1.082       .  S
C1210      C1211   1.403       .  A
C1211      C1212   1.403       .  A
C1211      H1216   1.083       .  S
C1212      C1213   1.406       .  A
C1212      H1217   1.084       .  S
C1213      C1214   1.397       .  A
C1214      H1218   1.083       .  S
C1219      C1220   1.411       .  A
C1219      C1224   1.407       .  A
C1219      H1225   1.083       .  S
C1220      C1221   1.396       .  A
C1221      C1222   1.388       .  A
C1221      H1226   1.084       .  S
C1222      C1223   1.412       .  A
C1222      H1227   1.083       .  S
C1223      C1224   1.404       .  A
C1224      H1228   1.083       .  S
C1229      C1230   1.405       .  A
C1229      C1234   1.402       .  A
C1229      H1235   1.084       .  S
C1230      C1231   1.398       .  A
C1231      C1232   1.396       .  A
C1231      H1236   1.082       .  S
C1232      C1233   1.408       .  A
C1232      H1237   1.083       .  S
C1233      C1234   1.404       .  A
C1234      H1238   1.083       .  S
C1239      C1240   1.405       .  A
C1239      C1244   1.390       .  A
C1239      H1245   1.083       .  S
C1240      C1241   1.408       .  A
C1241      C1242   1.404       .  A
C1241      H1246   1.083       .  S
C1242      C1243   1.405       .  A
C1242      H1247   1.083       .  S
C1243      C1244   1.402       .  A
C1244      H1248   1.083       .  S
