geometry optimzed in LAMMPS
_audit_creation_date              2020-12-01 
_audit_creation_method            'lammps2cif' 
_symmetry_space_group_name_H-M    'P1' 
_symmetry_Int_Tables_number       1 
_symmetry_cell_setting            triclinic 
loop_ 
_symmetry_equiv_pos_as_xyz 
  x,y,z 
_cell_length_a                    36.08796826 
_cell_length_b                    36.13410404161576 
_cell_length_c                    51.4663092660611 
_cell_angle_alpha                 89.939250749503 
_cell_angle_beta                  89.99848517664654 
_cell_angle_gamma                 89.97313649965749 
loop_ 
_atom_site_label 
_atom_site_type_symbol 
_atom_site_fract_x 
_atom_site_fract_y 
_atom_site_fract_z 
_atom_site_charge 
Zn1        Zn  0.00205664  0.04215963  0.10055346     1.49700
Zn2        Zn  0.95605109  0.01498848  0.14744394     1.49400
Zn3        Zn  0.99932756  0.95497083  0.11062162     1.49100
Zn4        Zn  0.04401788  0.01132165  0.14783306     1.49500
O5          O  0.00014687  0.00470058  0.12667844    -1.83500
O6          O  0.95721124  0.07251407  0.09826397    -0.74200
O7          O  0.92666035  0.96905342  0.15033658    -0.74000
O8          O  0.99839756  0.95946133  0.06987708    -0.73500
O9          O  0.92219661  0.05325021  0.13087746    -0.74200
O10         O  0.00465260  0.02040007  0.06665013    -0.73800
O11         O  0.95413607  0.92760282  0.12485451    -0.74400
O12         O  0.07137452  0.96432762  0.15036290    -0.73800
O13         O  0.96920512  0.02500495  0.18489031    -0.74500
O14         O  0.04401522  0.92429274  0.12405295    -0.73900
O15         O  0.03049235  0.02058013  0.18439929    -0.74400
O16         O  0.07970003  0.04930893  0.13408329    -0.74300
O17         O  0.04673507  0.07232071  0.10146374    -0.74100
C18         C  0.92683013  0.07285517  0.11052303     0.77700
C19         C  0.92892677  0.93656320  0.14115031     0.78200
C20         C  0.00214810  0.98896427  0.05624458     0.77200
C21         C  0.06911990  0.93214096  0.14076500     0.77500
C22         C  0.00016775  0.02307956  0.19674624     0.78700
C23         C  0.07621072  0.07083590  0.11470517     0.77700
Zn24       Zn  0.00104197  0.04854629  0.39261285     1.49700
Zn25       Zn  0.04546939  0.99242377  0.35488172     1.49400
Zn26       Zn  0.00205689  0.95877817  0.40107298     1.49100
Zn27       Zn  0.95570572  0.99026536  0.35618506     1.49500
O28         O  0.00110120  0.99861456  0.37619421    -1.83500
O29         O  0.04599978  0.08001224  0.37926442    -0.74200
O30         O  0.08022284  0.95095471  0.36714059    -0.74000
O31         O  0.99785533  0.97951359  0.43534349    -0.73500
O32         O  0.07495798  0.03933117  0.35420698    -0.74200
O33         O  0.00053771  0.04105717  0.43312565    -0.73800
O34         O  0.04944868  0.93099982  0.40168710    -0.74400
O35         O  0.92229736  0.94885111  0.37025454    -0.73800
O36         O  0.03007955  0.98789387  0.31783593    -0.74500
O37         O  0.95930123  0.92421054  0.39974018    -0.73900
O38         O  0.96851034  0.98500388  0.31855043    -0.74400
O39         O  0.92553625  0.03619200  0.35559161    -0.74300
O40         O  0.95481137  0.07737545  0.37999982    -0.74100
C41         C  0.07230794  0.07178487  0.36354995     0.77700
C42         C  0.07795792  0.93045221  0.38728111     0.78200
C43         C  0.99801895  0.01082127  0.44617901     0.77200
C44         C  0.92837878  0.92496800  0.38802447     0.77500
C45         C  0.99894449  0.98774710  0.30618177     0.78700
C46         C  0.92818472  0.06869029  0.36472635     0.77700
Zn47       Zn  0.20923926  0.25151654  0.08657947     1.49700
Zn48       Zn  0.23846963  0.20561168  0.04077640     1.49400
Zn49       Zn  0.23862673  0.29382120  0.03965841     1.49100
Zn50       Zn  0.29621907  0.24975395  0.07758139     1.49500
O51         O  0.24687465  0.25023409  0.06097998    -1.83500
O52         O  0.18158566  0.20578634  0.08927877    -0.74200
O53         O  0.23011582  0.21751705  0.00334381    -0.74000
O54         O  0.19760232  0.32792673  0.05246882    -0.73500
O55         O  0.20037075  0.17099438  0.05649529    -0.74200
O56         O  0.17544246  0.29304771  0.08415103    -0.73800
O57         O  0.23321307  0.27886405  0.00270437    -0.74400
O58         O  0.32472820  0.29491309  0.06457535    -0.73800
O59         O  0.28508899  0.17774519  0.03863952    -0.74500
O60         O  0.28448828  0.32320483  0.03864437    -0.73900
O61         O  0.32626368  0.20543888  0.06392610    -0.74400
O62         O  0.29100912  0.24979751  0.11808300    -0.74300
O63         O  0.23006825  0.25685462  0.12058230    -0.74100
C64         C  0.18111021  0.17558927  0.07697752     0.77700
C65         C  0.23247675  0.24792973  0.49098021     0.78200
C66         C  0.17530253  0.32284368  0.07131148     0.77200
C67         C  0.31664075  0.32059480  0.04843982     0.77500
C68         C  0.31767739  0.18019189  0.04759562     0.78700
C69         C  0.26131841  0.25446482  0.13136723     0.77700
Zn70       Zn  0.25963801  0.20339975  0.33222251     1.49700
Zn71       Zn  0.29491900  0.24806953  0.28775460     1.49400
Zn72       Zn  0.20450861  0.25018135  0.29519976     1.49100
Zn73       Zn  0.26219043  0.29422410  0.33234987     1.49500
O74         O  0.25416292  0.24908608  0.31197910    -1.83500
O75         O  0.29971155  0.16804450  0.31847218    -0.74200
O76         O  0.27477279  0.24495776  0.25324187    -0.74000
O77         O  0.17203801  0.20630616  0.30890171    -0.73500
O78         O  0.32792336  0.20474714  0.29023455    -0.74200
O79         O  0.21199033  0.17501722  0.33334053    -0.73800
O80         O  0.21314616  0.24878974  0.25480977    -0.74400
O81         O  0.21561433  0.32473452  0.33341458    -0.73800
O82         O  0.32656088  0.29268554  0.28748224    -0.74500
O83         O  0.17563535  0.29683407  0.30720575    -0.73900
O84         O  0.30513805  0.32736203  0.31937717    -0.74400
O85         O  0.26815712  0.27913380  0.36941189    -0.74300
O86         O  0.26707067  0.21751412  0.36945076    -0.74100
C87         C  0.32515998  0.17397724  0.30180752     0.77700
C88         C  0.24365248  0.24592191  0.24203829     0.78200
C89         C  0.17949633  0.17942793  0.32430614     0.77200
C90         C  0.18345308  0.32261488  0.32336808     0.77500
C91         C  0.32788347  0.32217128  0.30070479     0.78700
C92         C  0.26741192  0.24834812  0.38147583     0.77700
Zn93       Zn  0.20903980  0.74961707  0.16086947     1.49700
Zn94       Zn  0.23971996  0.79315445  0.20822406     1.49400
Zn95       Zn  0.23717141  0.70372794  0.20796441     1.49100
Zn96       Zn  0.29641733  0.74678154  0.17127073     1.49500
O97         O  0.24647603  0.74835632  0.18718578    -1.83500
O98         O  0.17608136  0.79256076  0.16281010    -0.74200
O99         O  0.24276256  0.77854710  0.24631649    -0.74000
O100        O  0.19134268  0.67391350  0.19605311    -0.73500
O101        O  0.19383890  0.82450083  0.19726209    -0.74200
O102        O  0.17702936  0.70585609  0.16076803    -0.73800
O103        O  0.23870573  0.71717549  0.24590265    -0.74400
O104        O  0.32375648  0.70032668  0.18395540    -0.73800
O105        O  0.28468916  0.82539296  0.20533127    -0.74500
O106        O  0.28103825  0.67003753  0.20666442    -0.73900
O107        O  0.32679531  0.79115122  0.18484822    -0.74400
O108        O  0.29223013  0.74756060  0.13075825    -0.74300
O109        O  0.23107149  0.75223047  0.12665146    -0.74100
C110        C  0.17240100  0.82016088  0.17766302     0.77700
C111        C  0.24444331  0.74739364  0.25801025     0.78200
C112        C  0.17171251  0.67842807  0.17559781     0.77200
C113        C  0.31398538  0.67296621  0.19816557     0.77500
C114        C  0.31783065  0.82008584  0.19773054     0.78700
C115        C  0.26306201  0.75074328  0.11672509     0.77700
Zn116      Zn  0.22149518  0.75046621  0.40747275     1.49700
Zn117      Zn  0.30837728  0.74772495  0.42220957     1.49400
Zn118      Zn  0.24641271  0.79240695  0.45638195     1.49100
Zn119      Zn  0.24663734  0.70377492  0.45601926     1.49500
O120        O  0.25665005  0.74841150  0.43555855    -1.83500
O121        O  0.24713700  0.74702425  0.37449863    -0.74200
O122        O  0.33577279  0.79384583  0.43549172    -0.74000
O123        O  0.20512517  0.82584410  0.44235889    -0.73500
O124        O  0.30800403  0.74602084  0.38150925    -0.74200
O125        O  0.19299783  0.79740299  0.40531780    -0.73800
O126        O  0.29174435  0.82298480  0.45760264    -0.74400
O127        O  0.24164824  0.71725118  0.49405420    -0.73800
O128        O  0.33641377  0.70315176  0.43802163    -0.74500
O129        O  0.24009248  0.77877186  0.49386535    -0.73900
O130        O  0.29156330  0.67148841  0.45748535    -0.74400
O131        O  0.20347355  0.67337892  0.44102077    -0.74300
O132        O  0.18645358  0.70835925  0.40764582    -0.74100
C133        C  0.28003342  0.74579109  0.36614916     0.77700
C134        C  0.32499343  0.82078022  0.44972089     0.78200
C135        C  0.18831775  0.82453015  0.42057508     0.77200
C136        C  0.24142632  0.74807484  0.00607444     0.77500
C137        C  0.32550658  0.67539522  0.45145559     0.78700
C138        C  0.18289600  0.67922059  0.42120411     0.77700
Zn139      Zn  0.49765928  0.03779412  0.02700876     1.49700
Zn140      Zn  0.50066529  0.95249824  0.01412883     1.49400
Zn141      Zn  0.45208447  0.00918813  0.47970544     1.49100
Zn142      Zn  0.54086562  0.01328086  0.47732715     1.49500
O143        O  0.49793846  0.00256832  0.49939578    -1.83500
O144        O  0.49689261  0.01410212  0.06105214    -0.74200
O145        O  0.45798744  0.92174389  0.00003335    -0.74000
O146        O  0.42237414  0.05470854  0.49144023    -0.73500
O147        O  0.50056124  0.95343446  0.05435113    -0.74200
O148        O  0.45502886  0.07118433  0.02586094    -0.73800
O149        O  0.42030548  0.96389165  0.48273739    -0.74400
O150        O  0.52520016  0.01263853  0.43969052    -0.73800
O151        O  0.54702071  0.92751960  0.00107299    -0.74500
O152        O  0.46378641  0.00864671  0.44133667    -0.73900
O153        O  0.57597904  0.97049794  0.47780611    -0.74400
O154        O  0.56966622  0.05946475  0.48913784    -0.74300
O155        O  0.54110830  0.06992822  0.02655398    -0.74100
C156        C  0.49861892  0.98131086  0.06956049     0.77700
C157        C  0.42799466  0.93046908  0.48847328     0.78200
C158        C  0.42753988  0.07575763  0.01095167     0.77200
C159        C  0.49401246  0.00781403  0.42854565     0.77500
C160        C  0.57398923  0.93774326  0.48674487     0.78700
C161        C  0.56663392  0.07725073  0.01051722     0.77700
Zn162      Zn  0.50143894  0.03060174  0.27705248     1.49700
Zn163      Zn  0.49997945  0.94288226  0.26478875     1.49400
Zn164      Zn  0.45615428  0.00279970  0.22942586     1.49100
Zn165      Zn  0.54651170  0.00237175  0.22999151     1.49500
O166        O  0.50104580  0.99380603  0.25015865    -1.83500
O167        O  0.49782116  0.00696325  0.31073751    -0.74200
O168        O  0.45505244  0.91445161  0.25031754    -0.74000
O169        O  0.42407824  0.04616691  0.24286062    -0.73500
O170        O  0.49757127  0.94579708  0.30536028    -0.74200
O171        O  0.45860947  0.06397374  0.27610821    -0.73800
O172        O  0.42371573  0.95776428  0.22898127    -0.74400
O173        O  0.53277090  0.00502243  0.19195775    -0.73800
O174        O  0.54540547  0.91375798  0.25168710    -0.74500
O175        O  0.47110756  0.00604608  0.19173063    -0.73900
O176        O  0.57775901  0.95673304  0.23059435    -0.74400
O177        O  0.57902167  0.04585562  0.24341970    -0.74300
O178        O  0.54619426  0.06203045  0.27788917    -0.74100
C179        C  0.49633496  0.97455261  0.31991906     0.77700
C180        C  0.42741241  0.92438935  0.23643287     0.78200
C181        C  0.42957447  0.06707680  0.26249140     0.77200
C182        C  0.50201317  0.00379260  0.17976376     0.77500
C183        C  0.57351576  0.92348407  0.23818012     0.78700
C184        C  0.57462091  0.06585136  0.26368828     0.77700
Zn185      Zn  0.79782280  0.75351541  0.16502860     1.49700
Zn186      Zn  0.76712062  0.70698002  0.21008176     1.49400
Zn187      Zn  0.76395547  0.79614331  0.21047334     1.49100
Zn188      Zn  0.70951696  0.75014059  0.17248170     1.49500
O189        O  0.75841400  0.75173588  0.18966718    -1.83500
O190        O  0.82580659  0.70751866  0.16275368    -0.74200
O191        O  0.77424579  0.71978127  0.24735207    -0.74000
O192        O  0.80594243  0.83028501  0.19855007    -0.73500
O193        O  0.80680011  0.67284397  0.19543303    -0.74200
O194        O  0.83276735  0.79432768  0.16931929    -0.73800
O195        O  0.76794935  0.78098709  0.24764507    -0.74400
O196        O  0.67750685  0.79404504  0.18501840    -0.73800
O197        O  0.72109365  0.67747807  0.21166043    -0.74500
O198        O  0.71703587  0.82499409  0.20993989    -0.73900
O199        O  0.68108325  0.70403646  0.18477174    -0.74400
O200        O  0.71743589  0.75096631  0.13241354    -0.74300
O201        O  0.77833237  0.75958918  0.13041961    -0.74100
C202        C  0.82684035  0.67745998  0.17532178     0.77700
C203        C  0.77001502  0.75010870  0.25952902     0.78200
C204        C  0.83135659  0.82438256  0.18183483     0.77200
C205        C  0.68490149  0.82100581  0.20024679     0.77500
C206        C  0.68915421  0.67900586  0.20142925     0.78700
C207        C  0.74728477  0.75614508  0.11935817     0.77700
Zn208      Zn  0.70641479  0.75022436  0.46287201     1.49700
Zn209      Zn  0.73865064  0.70442282  0.41784657     1.49400
Zn210      Zn  0.73717189  0.79463066  0.41691796     1.49100
Zn211      Zn  0.79518890  0.75095558  0.45404964     1.49500
O212        O  0.74545006  0.74998436  0.43773853    -1.83500
O213        O  0.67221002  0.70809443  0.46115861    -0.74200
O214        O  0.73231590  0.71815733  0.38038884    -0.74000
O215        O  0.69656622  0.82917602  0.43040689    -0.73500
O216        O  0.69650619  0.67118422  0.43148581    -0.74200
O217        O  0.67716265  0.79591354  0.46365377    -0.73800
O218        O  0.72980825  0.77969149  0.38016758    -0.74400
O219        O  0.82326156  0.79697245  0.44155549    -0.73800
O220        O  0.78600523  0.67522406  0.41732768    -0.74500
O221        O  0.78343062  0.82468871  0.41512695    -0.73900
O222        O  0.82690381  0.70687778  0.44065649    -0.74400
O223        O  0.78891331  0.75103769  0.49436186    -0.74300
O224        O  0.72748909  0.74747141  0.99705287    -0.74100
C225        C  0.67228630  0.67768727  0.44900242     0.77700
C226        C  0.73133652  0.74890438  0.36823872     0.78200
C227        C  0.67592149  0.82531221  0.45030505     0.77200
C228        C  0.81543128  0.82260885  0.42532296     0.77500
C229        C  0.81882363  0.67957828  0.42586095     0.78700
C230        C  0.75894132  0.74885542  0.00775652     0.77700
Zn231      Zn  0.69824999  0.24820279  0.07945037     1.49700
Zn232      Zn  0.75601717  0.20652359  0.04122914     1.49400
Zn233      Zn  0.75877014  0.29395998  0.04492201     1.49100
Zn234      Zn  0.78404792  0.24496317  0.09147329     1.49500
O235        O  0.74844498  0.24860623  0.06422099    -1.83500
O236        O  0.66841840  0.20551687  0.06405494    -0.74200
O237        O  0.75878945  0.22296337  0.00426765    -0.74000
O238        O  0.71477500  0.32599731  0.04627600    -0.73500
O239        O  0.71025838  0.17684992  0.03980770    -0.74200
O240        O  0.67163924  0.29428294  0.06755790    -0.73800
O241        O  0.76113470  0.28422664  0.00609305    -0.74400
O242        O  0.81832029  0.28735734  0.09327516    -0.73800
O243        O  0.79761847  0.17198845  0.05245896    -0.74500
O244        O  0.80167832  0.32350922  0.06028131    -0.73900
O245        O  0.81222935  0.19923672  0.08968015    -0.74400
O246        O  0.76052728  0.24232743  0.12519171    -0.74300
O247        O  0.69959265  0.24552868  0.11970185    -0.74100
C248        C  0.67733426  0.17995090  0.04810264     0.77700
C249        C  0.75785611  0.25445584  0.49311401     0.78200
C250        C  0.68168287  0.32221892  0.05414572     0.77200
C251        C  0.82172318  0.31683138  0.08016120     0.77500
C252        C  0.81539931  0.17271487  0.07383890     0.78700
C253        C  0.72807820  0.24273764  0.13433318     0.77700
Zn254      Zn  0.75922845  0.20465411  0.29408234     1.49700
Zn255      Zn  0.75610355  0.29408568  0.29238622     1.49400
Zn256      Zn  0.69815265  0.24852929  0.32842395     1.49100
Zn257      Zn  0.78593231  0.25307609  0.34088475     1.49500
O258        O  0.74907277  0.24992662  0.31394890    -1.83500
O259        O  0.76172551  0.21725864  0.25589064    -0.74200
O260        O  0.71071007  0.32546674  0.29338873    -0.74000
O261        O  0.67129518  0.20183730  0.31535115    -0.73500
O262        O  0.75656839  0.27859370  0.25503962    -0.74200
O263        O  0.71491868  0.17107226  0.29403557    -0.73800
O264        O  0.66789277  0.29257979  0.31416485    -0.74400
O265        O  0.76186883  0.25520152  0.37456408    -0.73800
O266        O  0.79947644  0.32765186  0.30341587    -0.74500
O267        O  0.70084011  0.25060990  0.36890844    -0.73900
O268        O  0.81548179  0.29905655  0.33977058    -0.74400
O269        O  0.82000050  0.20976359  0.34202380    -0.74300
O270        O  0.80357752  0.17507190  0.30847250    -0.74100
C271        C  0.75660343  0.24744110  0.24350118     0.77700
C272        C  0.67745598  0.32092294  0.30087145     0.78200
C273        C  0.68150350  0.17416823  0.30160239     0.77200
C274        C  0.72931889  0.25404562  0.38359355     0.77500
C275        C  0.81851221  0.32620057  0.32430553     0.78700
C276        C  0.82398752  0.18077552  0.32839822     0.77700
Zn277      Zn  0.54494946  0.48688217  0.48177390     1.49700
Zn278      Zn  0.50267856  0.54500575  0.01948189     1.49400
Zn279      Zn  0.45563857  0.49006645  0.48166879     1.49100
Zn280      Zn  0.49866200  0.45736328  0.02741150     1.49500
O281        O  0.50041296  0.49604538  0.00239162    -1.83500
O282        O  0.57531453  0.53247781  0.47999733    -0.74200
O283        O  0.45781890  0.57610789  0.00755501    -0.74000
O284        O  0.47044579  0.48671796  0.44427307    -0.73500
O285        O  0.54775635  0.57357787  0.00547604    -0.74200
O286        O  0.53167661  0.48003907  0.44452934    -0.73800
O287        O  0.42605743  0.53654470  0.48305985    -0.74400
O288        O  0.45627469  0.42464649  0.02492435    -0.73800
O289        O  0.50410621  0.53795890  0.05994858    -0.74500
O290        O  0.42203868  0.44723723  0.49311680    -0.73900
O291        O  0.49604594  0.47710948  0.06181988    -0.74400
O292        O  0.54264068  0.42664097  0.02808554    -0.74300
O293        O  0.57778554  0.44568326  0.49567244    -0.74100
C294        C  0.57313715  0.56493781  0.48923865     0.77700
C295        C  0.43040440  0.56862093  0.49273159     0.78200
C296        C  0.50129665  0.48426454  0.43235105     0.77200
C297        C  0.42714412  0.42385433  0.01135564     0.77500
C298        C  0.49957813  0.50795879  0.07294401     0.78700
C299        C  0.57233090  0.42467789  0.01517873     0.77700
Zn300      Zn  0.45917191  0.51515438  0.27424257     1.49700
Zn301      Zn  0.54963785  0.51313544  0.27357777     1.49400
Zn302      Zn  0.50272130  0.45674240  0.23738143     1.49100
Zn303      Zn  0.50418462  0.54513004  0.22830900     1.49500
O304        O  0.50396118  0.50641836  0.25367093    -1.83500
O305        O  0.47409328  0.52360832  0.31123464    -0.74200
O306        O  0.57881128  0.46590284  0.27390494    -0.74000
O307        O  0.45710698  0.42808626  0.25044139    -0.67100
O308        O  0.53571405  0.51937277  0.31108388    -0.74200
O309        O  0.43004030  0.46824722  0.27689237    -0.73800
O310        O  0.54703193  0.42569336  0.25011411    -0.74400
O311        O  0.50952322  0.52379332  0.19442094    -0.73800
O312        O  0.58353715  0.55442589  0.25928936    -0.74500
O313        O  0.50364624  0.46269041  0.19709238    -0.73900
O314        O  0.54613380  0.57929120  0.23013637    -0.74400
O315        O  0.45780423  0.57348828  0.22583056    -0.74300
O316        O  0.42388150  0.55471312  0.25897435    -0.74100
C317        C  0.50493310  0.52119410  0.32320628     0.77700
C318        C  0.57447599  0.43344980  0.26483141     0.78200
C319        C  0.43192058  0.43608568  0.26701956     0.77200
C320        C  0.50797522  0.49240759  0.18378794     0.77500
C321        C  0.57715845  0.57838420  0.24157169     0.78700
C322        C  0.42784326  0.57454730  0.23859927     0.77700
Zn323      Zn  0.99559486  0.46285641  0.09521731     1.49700
Zn324      Zn  0.04258364  0.48936183  0.14277051     1.49400
Zn325      Zn  0.99804158  0.54822768  0.10755219     1.49100
Zn326      Zn  0.95524564  0.48933760  0.14495695     1.49500
O327        O  0.99778177  0.49829506  0.12266147    -1.83500
O328        O  0.04284106  0.43628270  0.09127989    -0.74200
O329        O  0.07355957  0.53449531  0.14340428    -0.74000
O330        O  0.99961969  0.54606284  0.06713906    -0.73500
O331        O  0.07366292  0.44809188  0.12772764    -0.74200
O332        O  0.98750874  0.48626532  0.06155626    -0.73800
O333        O  0.04154722  0.57766728  0.12256883    -0.74400
O334        O  0.92207820  0.53247489  0.14374458    -0.73800
O335        O  0.03201758  0.48497952  0.18105542    -0.74500
O336        O  0.95169481  0.57474251  0.12014578    -0.73900
O337        O  0.97087902  0.49017541  0.18225293    -0.74400
O338        O  0.92490869  0.44415718  0.13488870    -0.74300
O339        O  0.95539210  0.42635420  0.09963530    -0.74100
C340        C  0.07081936  0.43189203  0.10581945     0.77700
C341        C  0.06898412  0.56798654  0.13674658     0.78200
C342        C  0.99269383  0.51836341  0.05243086     0.77200
C343        C  0.92472939  0.56505998  0.13473204     0.77500
C344        C  0.00213075  0.49007052  0.19369269     0.78700
C345        C  0.92878611  0.42255119  0.11551557     0.77700
Zn346      Zn  0.00138200  0.55507539  0.35714713     1.49700
Zn347      Zn  0.04532621  0.49419742  0.39287387     1.49400
Zn348      Zn  0.95541013  0.49700713  0.39173986     1.49100
Zn349      Zn  0.00063874  0.46696311  0.34481992     1.49500
O350        O  0.00093397  0.50409824  0.37173851    -1.83500
O351        O  0.04793435  0.58162417  0.36984867    -0.74200
O352        O  0.03014789  0.49260212  0.43096799    -0.74000
O353        O  0.92472228  0.54329892  0.39220611    -0.73500
O354        O  0.07824529  0.53882341  0.39239429    -0.74200
O355        O  0.95744703  0.58620632  0.37158279    -0.73800
O356        O  0.96852608  0.49271246  0.42938371    -0.74400
O357        O  0.95357730  0.43869855  0.34281602    -0.73800
O358        O  0.07651802  0.44935021  0.37961461    -0.74500
O359        O  0.92245601  0.45498594  0.37812249    -0.73900
O360        O  0.04303675  0.43170534  0.34584743    -0.74400
O361        O  0.00486343  0.49093708  0.31139135    -0.74300
O362        O  0.00135990  0.55204624  0.31671656    -0.74100
C363        C  0.07540061  0.57181206  0.38392446     0.77700
C364        C  0.99864219  0.49423631  0.44223944     0.78200
C365        C  0.92936348  0.57676443  0.38524554     0.77200
C366        C  0.92525689  0.43602413  0.35728471     0.77500
C367        C  0.07170820  0.42822268  0.35991973     0.78700
C368        C  0.00397596  0.52335534  0.30221435     0.77700
C369        C  0.00360988  0.49995089  0.22174109    -0.04900
C370        C  0.97076393  0.51088314  0.23440628    -0.32300
C371        C  0.97125147  0.52335706  0.26012733     0.36900
C372        C  0.00483044  0.52525623  0.27380395    -0.05200
C373        C  0.03779611  0.51527284  0.26118116    -0.32200
C374        C  0.03749545  0.50283639  0.23539761     0.36900
H375        H  0.94433986  0.50947968  0.22447375     0.17200
O376        O  0.93835909  0.53058653  0.27247522    -0.59700
H377        H  0.06366027  0.51500909  0.27189172     0.17200
O378        O  0.07045815  0.49318207  0.22399006    -0.59800
H379        H  0.07423645  0.46677194  0.22855623     0.44200
H380        H  0.93306062  0.55698942  0.26875311     0.44200
C381        C  0.99201124  0.52102955  0.02390543    -0.04900
C382        C  0.96123158  0.50631749  0.01089124    -0.32300
C383        C  0.96322253  0.49680465  0.48457707     0.36900
C384        C  0.99661503  0.50164040  0.47064539    -0.05200
C385        C  0.02710933  0.51762209  0.48356048    -0.32200
C386        C  0.02487482  0.52738106  0.00993861     0.36900
H387        H  0.93603845  0.50035634  0.02157695     0.17200
O388        O  0.93243188  0.48196559  0.47294739    -0.59700
H389        H  0.05281829  0.52248841  0.47324328     0.17200
O390        O  0.05586445  0.54038376  0.02234340    -0.59800
H391        H  0.05437685  0.56769706  0.02079723     0.44200
H392        H  0.93506637  0.45480432  0.47504723     0.44200
C393        C  0.50217450  0.49102946  0.40398658    -0.04900
C394        C  0.47061943  0.50611003  0.39196367    -0.32300
C395        C  0.47170928  0.51845470  0.36627435     0.36900
C396        C  0.50468434  0.51539514  0.35171014    -0.05200
C397        C  0.53635387  0.50048579  0.36376519    -0.32200
C398        C  0.53528286  0.48818372  0.38951379     0.36900
H399        H  0.44500099  0.50938705  0.40269386     0.17200
O400        O  0.44007591  0.53299116  0.35558145    -0.59700
H401        H  0.56190922  0.49712141  0.35297342     0.17200
O402        O  0.56692925  0.47375022  0.40028438    -0.59800
H403        H  0.56551697  0.44673988  0.39700893     0.44200
H404        H  0.44162116  0.55999415  0.35884292     0.44200
C405        C  0.49983287  0.50643614  0.10158934    -0.04900
C406        C  0.52646234  0.52611685  0.11562070    -0.32300
C407        C  0.53140154  0.51935537  0.14217935     0.36900
C408        C  0.50921869  0.49283630  0.15520644    -0.05200
C409        C  0.48290485  0.47288932  0.14114195    -0.32200
C410        C  0.47792587  0.47965137  0.11462592     0.36900
H411        H  0.54430361  0.54581255  0.10583908     0.17200
O412        O  0.55772516  0.53923265  0.15540601    -0.59700
H413        H  0.46496390  0.45329013  0.15093739     0.17200
O414        O  0.45145560  0.45980578  0.10152667    -0.59800
H415        H  0.42875968  0.47525015  0.10226204     0.44200
H416        H  0.58016535  0.52337603  0.15537934     0.44200
C417        C  0.84382142  0.35661740  0.33202608    -0.04900
C418        C  0.84955354  0.36324018  0.35871420    -0.32300
C419        C  0.87466190  0.39010950  0.36726942     0.36900
C420        C  0.89546191  0.41034824  0.34908783    -0.05200
C421        C  0.88909806  0.40446984  0.32237710    -0.32200
C422        C  0.86311633  0.37829472  0.31380258     0.36900
H423        H  0.83463663  0.34724346  0.37314009     0.17200
O424        O  0.88028540  0.39466308  0.39342462    -0.59700
H425        H  0.90461153  0.42004390  0.30803475     0.17200
O426        O  0.85842987  0.37271500  0.28765926    -0.59800
H427        H  0.84040209  0.39186670  0.28208573     0.44200
H428        H  0.86092276  0.41240050  0.39906759     0.44200
C429        C  0.64988574  0.34921635  0.29281513    -0.04900
C430        C  0.66129499  0.38622027  0.29061121    -0.32300
C431        C  0.63749301  0.41345629  0.28085571     0.36900
C432        C  0.60124173  0.40415763  0.27283912    -0.05200
C433        C  0.58993972  0.36694375  0.27459676    -0.32200
C434        C  0.61390842  0.33960848  0.28450250     0.36900
H435        H  0.68904695  0.39413614  0.29642106     0.17200
O436        O  0.65015950  0.44916774  0.27919544    -0.59700
H437        H  0.56223234  0.35908119  0.26868444     0.17200
O438        O  0.60216661  0.30353611  0.28539695    -0.59800
H439        H  0.60981202  0.29265601  0.26853787     0.44200
H440        H  0.66031082  0.45156000  0.26136525     0.44200
C441        C  0.72682763  0.25632278  0.41201934    -0.04900
C442        C  0.73926450  0.28884955  0.42414069    -0.32300
C443        C  0.74989380  0.28889063  0.45035343     0.36900
C444        C  0.74878841  0.25573868  0.46488791    -0.05200
C445        C  0.73512044  0.22350209  0.45275922    -0.32200
C446        C  0.72415920  0.22370224  0.42666595     0.36900
H447        H  0.74265934  0.31392194  0.41280489     0.17200
O448        O  0.76201069  0.32130722  0.46127521    -0.59700
H449        H  0.73311069  0.19773770  0.46344580     0.17200
O450        O  0.71383095  0.19114577  0.41507551    -0.59800
H451        H  0.68670182  0.18940940  0.41784464     0.44200
H452        H  0.78917465  0.32161408  0.45833300     0.44200
C453        C  0.72574222  0.24042131  0.16272369    -0.04900
C454        C  0.71763531  0.27242732  0.17686660    -0.32300
C455        C  0.72817590  0.27542754  0.20299741     0.36900
C456        C  0.74701999  0.24588343  0.21544782    -0.05200
C457        C  0.75315532  0.21309424  0.20146432    -0.32200
C458        C  0.74284410  0.21033725  0.17536238     0.36900
H459        H  0.70534272  0.29609679  0.16719825     0.17200
O460        O  0.71961908  0.30730971  0.21614354    -0.59700
H461        H  0.76676220  0.18972057  0.21058948     0.17200
O462        O  0.75187144  0.17894736  0.16178598    -0.59800
H463        H  0.72909080  0.16362462  0.16193120     0.44200
H464        H  0.74010254  0.32471134  0.21214347     0.44200
C465        C  0.90122066  0.39359009  0.10978516    -0.04900
C466        C  0.91283956  0.36151075  0.09666545    -0.32300
C467        C  0.88702577  0.33641183  0.08681083     0.36900
C468        C  0.84903529  0.34384907  0.08914938    -0.05200
C469        C  0.83718236  0.37512419  0.10295707    -0.32200
C470        C  0.86303106  0.39977013  0.11356753     0.36900
H471        H  0.94208349  0.35621163  0.09363955     0.17200
O472        O  0.89912902  0.30527821  0.07416114    -0.59700
H473        H  0.80784356  0.38029311  0.10562549     0.17200
O474        O  0.85064404  0.43087063  0.12611650    -0.59800
H475        H  0.84804146  0.42343647  0.14457741     0.44200
H476        H  0.90251233  0.28642695  0.08797949     0.44200
C477        C  0.65409061  0.34966816  0.04540068    -0.04900
C478        C  0.66291803  0.37304676  0.02434820    -0.32300
C479        C  0.63660173  0.39708208  0.01378832     0.36900
C480        C  0.60066153  0.39817715  0.02430397    -0.05200
C481        C  0.59195441  0.37485184  0.04540904    -0.32200
C482        C  0.61813692  0.35071748  0.05584686     0.36900
H483        H  0.69019423  0.37226898  0.01556917     0.17200
O484        O  0.64629593  0.41895365  0.49306442    -0.59700
H485        H  0.56460375  0.37520530  0.05408451     0.17200
O486        O  0.60834617  0.32879819  0.07652011    -0.59800
H487        H  0.59499273  0.30746385  0.06881621     0.44200
H488        H  0.65764066  0.44136025  0.50082774     0.44200
C489        C  0.84794761  0.65299049  0.41690268    -0.04900
C490        C  0.88482502  0.66462639  0.41310606    -0.32300
C491        C  0.91139206  0.64089631  0.40175946     0.36900
C492        C  0.90156239  0.60452168  0.39442855    -0.05200
C493        C  0.86492155  0.59287538  0.39871249    -0.32200
C494        C  0.83832289  0.61663048  0.40946406     0.36900
H495        H  0.89292420  0.69247968  0.41840636     0.17200
O496        O  0.94719572  0.65299384  0.39906684    -0.59700
H497        H  0.85669801  0.56494367  0.39369130     0.17200
O498        O  0.80308033  0.60350483  0.41333905    -0.59800
H499        H  0.79094358  0.60473624  0.39606421     0.44200
H500        H  0.94773566  0.66632413  0.38222051     0.44200
C501        C  0.64507209  0.64910227  0.45713505    -0.04900
C502        C  0.65270380  0.61157094  0.45285421    -0.32300
C503        C  0.63035097  0.58393368  0.46379624     0.36900
C504        C  0.59926348  0.59349876  0.47924984    -0.05200
C505        C  0.59123864  0.63109899  0.48301294    -0.32200
C506        C  0.61350150  0.65867198  0.47201930     0.36900
H507        H  0.67685772  0.60348220  0.44171452     0.17200
O508        O  0.63939504  0.54764327  0.45924170    -0.59700
H509        H  0.56715978  0.63932686  0.49417931     0.17200
O510        O  0.60414750  0.69498998  0.47618834    -0.59800
H511        H  0.58890662  0.70216254  0.46095845     0.44200
H512        H  0.65672543  0.54079225  0.47340995     0.44200
C513        C  0.76263601  0.74932376  0.28780588    -0.04900
C514        C  0.75305412  0.78250448  0.30032711    -0.32300
C515        C  0.74003584  0.78259450  0.32582099     0.36900
C516        C  0.73709186  0.74906284  0.33977861    -0.05200
C517        C  0.74621203  0.71578160  0.32718762    -0.32200
C518        C  0.75897180  0.71566740  0.30156598     0.36900
H519        H  0.75477683  0.80871918  0.29016339     0.17200
O520        O  0.73117419  0.81589764  0.33698722    -0.59700
H521        H  0.74452135  0.68962363  0.33742734     0.17200
O522        O  0.76696104  0.68233154  0.29012743    -0.59800
H523        H  0.79342863  0.67765028  0.29415831     0.44200
H524        H  0.70446517  0.81956542  0.33322609     0.44200
C525        C  0.75844493  0.74897840  0.03644279    -0.04900
C526        C  0.72851500  0.73158227  0.04920191    -0.32300
C527        C  0.72315159  0.73529063  0.07595857     0.36900
C528        C  0.74812838  0.75637101  0.09064012    -0.05200
C529        C  0.77807827  0.77385160  0.07787747    -0.32200
C530        C  0.78337340  0.77020768  0.05105634     0.36900
H531        H  0.70882404  0.71514946  0.03827748     0.17200
O532        O  0.69454055  0.71668240  0.08765871    -0.59700
H533        H  0.79776080  0.79027886  0.08880786     0.17200
O534        O  0.81175704  0.78900788  0.03923057    -0.59800
H535        H  0.83350130  0.77230981  0.04046408     0.44200
H536        H  0.67281557  0.73334890  0.08606674     0.44200
C537        C  0.85109574  0.64775086  0.16517512    -0.04900
C538        C  0.87063754  0.65411247  0.14186446    -0.32300
C539        C  0.89339321  0.62702933  0.13105248     0.36900
C540        C  0.89727191  0.59266627  0.14352063    -0.05200
C541        C  0.87696155  0.58578531  0.16642756    -0.32200
C542        C  0.85422707  0.61299019  0.17733718     0.36900
H543        H  0.86843178  0.68034485  0.13177369     0.17200
O544        O  0.91203795  0.63475734  0.10846898    -0.59700
H545        H  0.87958732  0.55958160  0.17651687     0.17200
O546        O  0.83535198  0.60517813  0.19981641    -0.59800
H547        H  0.85276160  0.61142511  0.21406744     0.44200
H548        H  0.89553142  0.62601394  0.09434640     0.44200
C549        C  0.66080286  0.65214383  0.21070126    -0.04900
C550        C  0.66853058  0.62998094  0.23267292    -0.32300
C551        C  0.64168405  0.60647747  0.24342530     0.36900
C552        C  0.60614244  0.60455749  0.23225940    -0.05200
C553        C  0.59862513  0.62645578  0.21013445    -0.32200
C554        C  0.62546205  0.64973627  0.19931550     0.36900
H555        H  0.69543916  0.63118353  0.24196010     0.17200
O556        O  0.65076881  0.58533118  0.26463218    -0.59700
H557        H  0.57179959  0.62528628  0.20072950     0.17200
O558        O  0.61658241  0.67009812  0.17768890    -0.59800
H559        H  0.62217789  0.65371034  0.16274295     0.44200
H560        H  0.64535670  0.60117084  0.27989283     0.44200
C561        C  0.60163158  0.89597075  0.22973279    -0.04900
C562        C  0.63845651  0.90756637  0.22649972    -0.32300
C563        C  0.66526561  0.88390043  0.21608843     0.36900
C564        C  0.65568646  0.84765952  0.20835026    -0.05200
C565        C  0.61866245  0.83613076  0.21111336    -0.32200
C566        C  0.59180343  0.85985469  0.22189945     0.36900
H567        H  0.64655619  0.93535513  0.23199832     0.17200
O568        O  0.70090035  0.89662707  0.21358155    -0.59700
H569        H  0.61067570  0.80837939  0.20547450     0.17200
O570        O  0.55576088  0.84807363  0.22353097    -0.59800
H571        H  0.55406277  0.83484655  0.24037784     0.44200
H572        H  0.70241152  0.90673638  0.19569217     0.44200
C573        C  0.60240578  0.09399905  0.27191179    -0.04900
C574        C  0.59051160  0.12415179  0.28709311    -0.32300
C575        C  0.61565372  0.14995874  0.29718731     0.36900
C576        C  0.65400409  0.14587835  0.29265010    -0.05200
C577        C  0.66591147  0.11563297  0.27737483    -0.32200
C578        C  0.64058286  0.08994653  0.26709124     0.36900
H579        H  0.56129270  0.12791251  0.29117596     0.17200
O580        O  0.60218732  0.17903907  0.31145662    -0.59700
H581        H  0.69509025  0.11177875  0.27325377     0.17200
O582        O  0.65360675  0.06064189  0.25284539    -0.59800
H583        H  0.65829922  0.04071013  0.26569938     0.44200
H584        H  0.59546688  0.19824836  0.29849685     0.44200
C585        C  0.49309406  0.97268324  0.34833794    -0.04900
C586        C  0.46086184  0.98727898  0.35970113    -0.32300
C587        C  0.46067365  0.99930916  0.38558530     0.36900
C588        C  0.49333981  0.99726915  0.40061005    -0.05200
C589        C  0.52522614  0.98141033  0.38936389    -0.32200
C590        C  0.52518580  0.96912240  0.36353783     0.36900
H591        H  0.43631589  0.99151029  0.34792144     0.17200
O592        O  0.42873327  0.01409515  0.39563693    -0.59700
H593        H  0.55049021  0.97865891  0.40057247     0.17200
O594        O  0.55750819  0.95648621  0.35270375    -0.59800
H595        H  0.55681378  0.92924844  0.35501684     0.44200
H596        H  0.43005402  0.04092928  0.39166022     0.44200
C597        C  0.50172479  0.99621500  0.15129650    -0.04900
C598        C  0.46762663  0.99496616  0.13802686    -0.32300
C599        C  0.46595470  0.98582620  0.11165747     0.36900
C600        C  0.49853757  0.97753607  0.09791909    -0.05200
C601        C  0.53246355  0.97726518  0.11111407    -0.32200
C602        C  0.53431894  0.98640951  0.13756788     0.36900
H603        H  0.44203227  0.00159015  0.14798753     0.17200
O604        O  0.43252030  0.98734760  0.09902179    -0.59700
H605        H  0.55789387  0.97201662  0.10053176     0.17200
O606        O  0.56817439  0.98565006  0.14966459    -0.59800
H607        H  0.57916619  0.01037714  0.14640735     0.44200
H608        H  0.42344870  0.96144973  0.09871071     0.44200
C609        C  0.65060229  0.85512981  0.45924675    -0.04900
C610        C  0.63008673  0.84940599  0.48220357    -0.32300
C611        C  0.60638719  0.87651401  0.49196323     0.36900
C612        C  0.60228894  0.91033914  0.47871759    -0.05200
C613        C  0.62342069  0.91663202  0.45611891    -0.32200
C614        C  0.64729812  0.88938046  0.44632074     0.36900
H615        H  0.63231721  0.82365694  0.49288962     0.17200
O616        O  0.58683807  0.86913969  0.01420307    -0.59700
H617        H  0.62069048  0.94239810  0.44550370     0.17200
O618        O  0.66723186  0.89669440  0.42422074    -0.59800
H619        H  0.65068473  0.88969192  0.40965152     0.44200
H620        H  0.60245435  0.87903404  0.02844516     0.44200
C621        C  0.64885160  0.15414847  0.03780055    -0.04900
C622        C  0.61219520  0.15659961  0.04666053    -0.32300
C623        C  0.58482006  0.13289899  0.03703735     0.36900
C624        C  0.59374040  0.10603307  0.01804219    -0.05200
C625        C  0.62992447  0.10455457  0.00836764    -0.32200
C626        C  0.65731605  0.12827870  0.01793825     0.36900
H627        H  0.60458694  0.17684753  0.06122898     0.17200
O628        O  0.54921393  0.13670419  0.04604374    -0.59700
H629        H  0.63738952  0.08415220  0.99386527     0.17200
O630        O  0.69239756  0.12536403  0.00788589    -0.59800
H631        H  0.69255652  0.14178196  0.99241664     0.44200
H632        H  0.54911111  0.12489897  0.06346121     0.44200
C633        C  0.10373666  0.59943538  0.39221311    -0.04900
C634        C  0.13287809  0.58819854  0.40870190    -0.32300
C635        C  0.15831842  0.61375068  0.41875197     0.36900
C636        C  0.15502199  0.65157155  0.41257768    -0.05200
C637        C  0.12626355  0.66279399  0.39583589    -0.32200
C638        C  0.10076948  0.63731219  0.38580921     0.36900
H639        H  0.13599911  0.55936915  0.41405949     0.17200
O640        O  0.18660922  0.60123084  0.43423830    -0.59700
H641        H  0.12334939  0.69165194  0.39046298     0.17200
O642        O  0.07321542  0.64991691  0.36970955    -0.59800
H643        H  0.05331458  0.65874439  0.38146822     0.44200
H644        H  0.20704622  0.59502202  0.42210948     0.44200
C645        C  0.35262516  0.64787707  0.46178759    -0.04900
C646        C  0.38983547  0.65801346  0.46589395    -0.32300
C647        C  0.41505347  0.63334664  0.47754338     0.36900
C648        C  0.40347459  0.59757984  0.48489523    -0.05200
C649        C  0.36634264  0.58755540  0.48095079    -0.32200
C650        C  0.34105203  0.61222186  0.46973589     0.36900
H651        H  0.39937580  0.68530836  0.46031589     0.17200
O652        O  0.45140801  0.64370543  0.48018731    -0.59700
H653        H  0.35694959  0.56006313  0.48621724     0.17200
O654        O  0.30509317  0.60086776  0.46642851    -0.59800
H655        H  0.30433084  0.58962342  0.44886555     0.44200
H656        H  0.45283635  0.65601168  0.49736714     0.44200
C657        C  0.35152666  0.84950311  0.45870581    -0.04900
C658        C  0.38981929  0.84241634  0.45842599    -0.32300
C659        C  0.41497046  0.86794979  0.46893226     0.36900
C660        C  0.40203355  0.90128693  0.47993026    -0.05200
C661        C  0.36392430  0.90857733  0.47995083    -0.32200
C662        C  0.33877934  0.88313983  0.46963420     0.36900
H663        H  0.40034102  0.81681206  0.45034483     0.17200
O664        O  0.45213361  0.86041218  0.96776968    -0.59700
H665        H  0.35352540  0.93429750  0.48795554     0.17200
O666        O  0.30172538  0.89156219  0.47050862    -0.59800
H667        H  0.29644009  0.90438378  0.45386943     0.44200
H668        H  0.46038930  0.87042178  0.95077781     0.44200
C669        C  0.28325940  0.74443576  0.33769744    -0.04900
C670        C  0.27185384  0.71183237  0.32531645    -0.32300
C671        C  0.25877503  0.71231866  0.29967543     0.36900
C672        C  0.25675413  0.74604826  0.28572304    -0.05200
C673        C  0.27022322  0.77836657  0.29779295    -0.32200
C674        C  0.28306127  0.77773647  0.32354793     0.36900
H675        H  0.27049927  0.68620760  0.33624954     0.17200
O676        O  0.24724777  0.67965992  0.28879499    -0.59700
H677        H  0.27015327  0.80450252  0.28746742     0.17200
O678        O  0.29330602  0.81024186  0.33527321    -0.59800
H679        H  0.26989797  0.82138803  0.34166047     0.44200
H680        H  0.22059540  0.67765495  0.29327569     0.44200
C681        C  0.26403729  0.75280649  0.08815494    -0.04900
C682        C  0.24244402  0.78030934  0.07613654    -0.32300
C683        C  0.23394941  0.77857004  0.04968660     0.36900
C684        C  0.24684176  0.74873474  0.03460828    -0.05200
C685        C  0.26906170  0.72147353  0.04654011    -0.32200
C686        C  0.27789511  0.72352480  0.07308385     0.36900
H687        H  0.23081893  0.80259865  0.08763540     0.17200
O688        O  0.21235431  0.80582696  0.03892898    -0.59700
H689        H  0.27997312  0.69869652  0.03519648     0.17200
O690        O  0.29791710  0.69557513  0.08440429    -0.59800
H691        H  0.32410693  0.70371524  0.08334501     0.44200
H692        H  0.18659140  0.79640517  0.04006327     0.44200
C693        C  0.14316156  0.65108245  0.16763563    -0.04900
C694        C  0.14497654  0.61458527  0.17671272    -0.32300
C695        C  0.12125528  0.58734010  0.16681616     0.36900
C696        C  0.09514884  0.59618901  0.14712992    -0.05200
C697        C  0.09251797  0.63302677  0.13876905    -0.32200
C698        C  0.11587413  0.66030671  0.14891198     0.36900
H699        H  0.16549247  0.60682128  0.19109173     0.17200
O700        O  0.12417303  0.55209778  0.17653810    -0.59700
H701        H  0.07221882  0.64088903  0.12426736     0.17200
O702        O  0.11192993  0.69591843  0.14005207    -0.59800
H703        H  0.09556419  0.70825841  0.15288787     0.44200
H704        H  0.10722112  0.55143266  0.19171366     0.44200
C705        C  0.39757369  0.59869418  0.22840103    -0.04900
C706        C  0.40263865  0.61666665  0.20427466    -0.32300
C707        C  0.37529701  0.63963029  0.19364659     0.36900
C708        C  0.34185307  0.64535999  0.20705494    -0.05200
C709        C  0.33616277  0.62653067  0.23075017    -0.32200
C710        C  0.36363135  0.60360771  0.24147939     0.36900
H711        H  0.42807423  0.61304461  0.19339378     0.17200
O712        O  0.38177254  0.65647612  0.17019060    -0.59700
H713        H  0.31071625  0.63053646  0.24156289     0.17200
O714        O  0.35693426  0.58641429  0.26477577    -0.59800
H715        H  0.36408947  0.60471636  0.27821889     0.44200
H716        H  0.37232010  0.63890331  0.15696318     0.44200
C717        C  0.34655553  0.84729545  0.20586724    -0.04900
C718        C  0.38261922  0.83523486  0.21186284    -0.32300
C719        C  0.40878243  0.85950072  0.22281444     0.36900
C720        C  0.39945161  0.89687125  0.22745118    -0.05200
C721        C  0.36355376  0.90897557  0.22103842    -0.32200
C722        C  0.33727285  0.88465757  0.21057678     0.36900
H723        H  0.39029531  0.80659289  0.20874046     0.17200
O724        O  0.44379053  0.84667490  0.22796030    -0.59700
H725        H  0.35570460  0.93757210  0.22418481     0.17200
O726        O  0.30246450  0.89781155  0.20511169    -0.59800
H727        H  0.30305334  0.90441456  0.18640789     0.44200
H728        H  0.44231945  0.83575909  0.24561635     0.44200
C729        C  0.15459274  0.34985297  0.33211300    -0.04900
C730        C  0.16240782  0.37375965  0.35311131    -0.32300
C731        C  0.13569316  0.39836372  0.36298626     0.36900
C732        C  0.10005066  0.40004905  0.35183433    -0.05200
C733        C  0.09215484  0.37597565  0.33093345    -0.32200
C734        C  0.11881238  0.35127993  0.32111625     0.36900
H735        H  0.18944695  0.37329478  0.36223998     0.17200
O736        O  0.14526557  0.42128715  0.38310327    -0.59700
H737        H  0.06511688  0.37644289  0.32179957     0.17200
O738        O  0.10930982  0.32861000  0.30083048    -0.59800
H739        H  0.11533297  0.34292449  0.28493150     0.44200
H740        H  0.13938202  0.40712812  0.39909773     0.44200
C741        C  0.35573286  0.35083831  0.29327959    -0.04900
C742        C  0.35211825  0.38729557  0.30227485    -0.32300
C743        C  0.37622308  0.41528854  0.29375878     0.36900
C744        C  0.40499374  0.40724397  0.27584146    -0.05200
C745        C  0.40901644  0.37058503  0.26730621    -0.32200
C746        C  0.38506249  0.34262729  0.27589369     0.36900
H747        H  0.33002854  0.39442104  0.31562020     0.17200
O748        O  0.37136984  0.45035903  0.30334055    -0.59700
H749        H  0.43109283  0.36329664  0.25399432     0.17200
O750        O  0.39067656  0.30731661  0.26694642    -0.59800
H751        H  0.40711273  0.29546765  0.27997598     0.44200
H752        H  0.35343241  0.46231601  0.29138435     0.44200
C753        C  0.35141422  0.14478600  0.29419151    -0.04900
C754        C  0.33854016  0.11353379  0.28074767    -0.32300
C755        C  0.36352606  0.08883258  0.26899984     0.36900
C756        C  0.40199238  0.09488745  0.27111675    -0.05200
C757        C  0.41461132  0.12611817  0.28484121    -0.32200
C758        C  0.38971269  0.15115969  0.29593995     0.36900
H759        H  0.30902495  0.10893453  0.27863433     0.17200
O760        O  0.35009626  0.05820992  0.25643693    -0.59700
H761        H  0.44404613  0.13121680  0.28698439     0.17200
O762        O  0.40304951  0.18155991  0.30887188    -0.59800
H763        H  0.40825709  0.20015340  0.29516505     0.44200
H764        H  0.34520797  0.06651846  0.23838532     0.44200
C765        C  0.23903636  0.24749583  0.46257884    -0.04900
C766        C  0.24748262  0.28099414  0.44998403    -0.32300
C767        C  0.25899054  0.28166370  0.42410719     0.36900
C768        C  0.26216776  0.24832850  0.41001087    -0.05200
C769        C  0.25422480  0.21475722  0.42268360    -0.32200
C770        C  0.24293158  0.21408098  0.44864983     0.36900
H771        H  0.24587001  0.30705106  0.46031795     0.17200
O772        O  0.26720874  0.31517277  0.41293793    -0.59700
H773        H  0.25591954  0.18873385  0.41231610     0.17200
O774        O  0.23559868  0.18053135  0.46004656    -0.59800
H775        H  0.26011271  0.17058999  0.46529095     0.44200
H776        H  0.24292957  0.32620978  0.40827210     0.44200
C777        C  0.24530629  0.24546570  0.21342354    -0.04900
C778        C  0.22649930  0.27256484  0.19925641    -0.32300
C779        C  0.23417306  0.27779338  0.17286735     0.36900
C780        C  0.26052641  0.25523404  0.16000725    -0.05200
C781        C  0.27950821  0.22823607  0.17419776    -0.32200
C782        C  0.27204335  0.22320367  0.20067114     0.36900
H783        H  0.20699121  0.29077483  0.20888449     0.17200
O784        O  0.21541875  0.30493152  0.15963471    -0.59700
H785        H  0.29898109  0.21000459  0.16455626     0.17200
O786        O  0.29127534  0.19653544  0.21405760    -0.59800
H787        H  0.27581675  0.17392418  0.21283803     0.44200
H788        H  0.23146810  0.32715003  0.16073075     0.44200
C789        C  0.09987729  0.40656026  0.09704187    -0.04900
C790        C  0.11474566  0.38140045  0.11474874    -0.32300
C791        C  0.13921902  0.35411180  0.10643780     0.36900
C792        C  0.14990864  0.35221241  0.08000147    -0.05200
C793        C  0.13647023  0.37869380  0.06248138    -0.32200
C794        C  0.11110396  0.40550978  0.07078397     0.36900
H795        H  0.10639816  0.38207401  0.13497673     0.17200
O796        O  0.15329791  0.32999874  0.12454022    -0.59700
H797        H  0.14490610  0.37807438  0.04228180     0.17200
O798        O  0.09813465  0.43114548  0.05331754    -0.59800
H799        H  0.07835854  0.41828863  0.04345681     0.44200
H800        H  0.13365288  0.31118540  0.12723062     0.44200
C801        C  0.34518054  0.34716765  0.03936985    -0.04900
C802        C  0.33495410  0.37576435  0.02208358    -0.32300
C803        C  0.36135663  0.39996822  0.01169639     0.36900
C804        C  0.39883357  0.39608833  0.01861678    -0.05200
C805        C  0.40911904  0.36709909  0.03547738    -0.32200
C806        C  0.38281504  0.34301596  0.04591757     0.36900
H807        H  0.30625703  0.37956424  0.01651139     0.17200
O808        O  0.34988566  0.42821461  0.99579466    -0.59700
H809        H  0.43782329  0.36330451  0.04106052     0.17200
O810        O  0.39449332  0.31518145  0.06210719    -0.59800
H811        H  0.39510981  0.32636782  0.07969110     0.44200
H812        H  0.34988931  0.41758900  0.97803628     0.44200
C813        C  0.34600014  0.15387815  0.03758815    -0.04900
C814        C  0.38331590  0.15812858  0.04459505    -0.32300
C815        C  0.41048527  0.13427373  0.03480885     0.36900
C816        C  0.40058714  0.10499941  0.01791746    -0.05200
C817        C  0.36368985  0.10170262  0.00999381    -0.32200
C818        C  0.33651874  0.12559444  0.01964840     0.36900
H819        H  0.39161484  0.18010043  0.05766246     0.17200
O820        O  0.44664397  0.13989282  0.54200030    -0.59700
H821        H  0.35548874  0.07961376  0.99698557     0.17200
O822        O  0.30075391  0.12083187  0.01127465    -0.59800
H823        H  0.28996022  0.10205334  0.02312752     0.44200
H824        H  0.45751029  0.15522607  0.52793670     0.44200
C825        C  0.85173010  0.15269573  0.33693125    -0.04900
C826        C  0.84778662  0.11574425  0.32915067    -0.32300
C827        C  0.87163298  0.08812530  0.33850928     0.36900
C828        C  0.90064284  0.09706217  0.35603311    -0.05200
C829        C  0.90466735  0.13413140  0.36368702    -0.32200
C830        C  0.88053424  0.16167332  0.35450130     0.36900
H831        H  0.82555675  0.10792702  0.31611512     0.17200
O832        O  0.86569597  0.05234173  0.33065909    -0.59700
H833        H  0.92683079  0.14203015  0.37674389     0.17200
O834        O  0.88607041  0.19750698  0.36237112    -0.59800
H835        H  0.87460405  0.19912044  0.37985320     0.44200
H836        H  0.87648093  0.05076115  0.31297256     0.44200
C837        C  0.84421264  0.84969053  0.41680938    -0.04900
C838        C  0.83495791  0.87741221  0.39859228    -0.32300
C839        C  0.86182003  0.90169188  0.38865205     0.36900
C840        C  0.89908361  0.89850917  0.39662685    -0.05200
C841        C  0.90817273  0.87106331  0.41503356    -0.32200
C842        C  0.88137485  0.84690978  0.42501414     0.36900
H843        H  0.80668993  0.88031685  0.39180572     0.17200
O844        O  0.85115418  0.92838869  0.37122087    -0.59700
H845        H  0.93639252  0.86815940  0.42191279     0.17200
O846        O  0.89203837  0.82077829  0.44285698    -0.59800
H847        H  0.90119204  0.79958431  0.43243312     0.44200
H848        H  0.84252088  0.94945721  0.38198086     0.44200
C849        C  0.16276505  0.85452137  0.41225698    -0.04900
C850        C  0.15566864  0.85965220  0.38553819    -0.32300
C851        C  0.12921022  0.88530332  0.37692399     0.36900
C852        C  0.10890679  0.90601012  0.39510476    -0.05200
C853        C  0.11690129  0.90190000  0.42171333    -0.32200
C854        C  0.14394753  0.87691927  0.43031467     0.36900
H855        H  0.17026792  0.84323295  0.37120839     0.17200
O856        O  0.12242686  0.88880170  0.35081440    -0.59700
H857        H  0.10179383  0.91795772  0.43599466     0.17200
O858        O  0.15019253  0.87323864  0.45647118    -0.59800
H859        H  0.16870451  0.89257322  0.46074890     0.44200
H860        H  0.10318040  0.87003856  0.34688235     0.44200
C861        C  0.15050055  0.15254531  0.33286435    -0.04900
C862        C  0.16010149  0.11505306  0.33522753    -0.32300
C863        C  0.13526933  0.08901995  0.34550906     0.36900
C864        C  0.09996548  0.10010106  0.35461555    -0.05200
C865        C  0.09047770  0.13786543  0.35271127    -0.32200
C866        C  0.11524027  0.16387089  0.34173096     0.36900
H867        H  0.18725961  0.10575468  0.32903997     0.17200
O868        O  0.14640013  0.05279006  0.34727971    -0.59700
H869        H  0.06354082  0.14718174  0.35930202     0.17200
O870        O  0.10544416  0.20052208  0.34102604    -0.59800
H871        H  0.09171252  0.20367193  0.32448247     0.44200
H872        H  0.14326635  0.04250905  0.32954701     0.44200
C873        C  0.00077368  0.01853994  0.22536561    -0.04900
C874        C  0.96726723  0.01882498  0.23923177    -0.32300
C875        C  0.96588980  0.00766070  0.26523645     0.36900
C876        C  0.99836575  0.99526410  0.27790285    -0.05200
C877        C  0.03198205  0.99582464  0.26421234    -0.32200
C878        C  0.03349649  0.00742375  0.23837148     0.36900
H879        H  0.94173752  0.02709782  0.22978996     0.17200
O880        O  0.93264280  0.00954527  0.27807486    -0.59700
H881        H  0.05754683  0.98754206  0.27361215     0.17200
O882        O  0.06723485  0.00737006  0.22605881    -0.59800
H883        H  0.07139863  0.98134581  0.22066655     0.44200
H884        H  0.93135144  0.03513288  0.28497994     0.44200
C885        C  0.99653301  0.00956627  0.47471915    -0.04900
C886        C  0.02791696  0.01973786  0.48889466    -0.32300
C887        C  0.03134099  0.00976250  0.01505752     0.36900
C888        C  0.00309831  0.98941570  0.02763362    -0.05200
C889        C  0.97167018  0.97910211  0.01346244    -0.32200
C890        C  0.96845766  0.98869158  0.48708863     0.36900
H891        H  0.05049659  0.03418085  0.47940736     0.17200
O892        O  0.06227901  0.02063179  0.02846370    -0.59700
H893        H  0.94902791  0.96486928  0.02302299     0.17200
O894        O  0.93754135  0.97797775  0.47351721    -0.59800
H895        H  0.94203648  0.95178933  0.46868761     0.44200
H896        H  0.07929146  0.99909547  0.02781803     0.44200
C897        C  0.84006347  0.14251659  0.08155603    -0.04900
C898        C  0.86739393  0.12987021  0.06457122    -0.32300
C899        C  0.89564400  0.10677989  0.07370072     0.36900
C900        C  0.89632851  0.09572642  0.10015097    -0.05200
C901        C  0.86730566  0.10642065  0.11654856    -0.32200
C902        C  0.83935195  0.12967268  0.10743650     0.36900
H903        H  0.86795536  0.13938199  0.04459680     0.17200
O904        O  0.92221287  0.09494827  0.05653308    -0.59700
H905        H  0.86682098  0.09767270  0.13668902     0.17200
O906        O  0.81200400  0.14076589  0.12424213    -0.59800
H907        H  0.79111492  0.12348931  0.12117074     0.44200
H908        H  0.93989577  0.11584131  0.05497564     0.44200
C909        C  0.85817672  0.85345620  0.17461133    -0.04900
C910        C  0.84709055  0.89063915  0.17474247    -0.32300
C911        C  0.86915620  0.91788492  0.16311686     0.36900
C912        C  0.90322272  0.90817284  0.15134456    -0.05200
C913        C  0.91457992  0.87108921  0.15176917    -0.32200
C914        C  0.89259084  0.84394319  0.16338237     0.36900
H915        H  0.82044701  0.89840979  0.18277889     0.17200
O916        O  0.85676973  0.95378354  0.16298983    -0.59700
H917        H  0.94099730  0.86309556  0.14348172     0.17200
O918        O  0.90481645  0.80798804  0.16328567    -0.59800
H919        H  0.91900833  0.80510367  0.17966191     0.44200
H920        H  0.84251835  0.95639739  0.14660969     0.44200
C921        C  0.14379992  0.84803328  0.17044364    -0.04900
C922        C  0.14846191  0.88513971  0.17747723    -0.32300
C923        C  0.12501718  0.91269871  0.16757218     0.36900
C924        C  0.09558194  0.90347181  0.15042821    -0.05200
C925        C  0.09040905  0.86615204  0.14393023    -0.32200
C926        C  0.11397192  0.83864980  0.15376859     0.36900
H927        H  0.17127754  0.89312639  0.18995104     0.17200
O928        O  0.13148535  0.94864850  0.17479717    -0.59700
H929        H  0.06784612  0.85808282  0.13126251     0.17200
O930        O  0.10772677  0.80261752  0.14662226    -0.59800
H931        H  0.09220655  0.79204205  0.16069626     0.44200
H932        H  0.14887612  0.95852762  0.16156707     0.44200
C933        C  0.10704485  0.09374549  0.10613570    -0.04900
C934        C  0.12386976  0.11818194  0.12340522    -0.32300
C935        C  0.14892206  0.14445746  0.11417166     0.36900
C936        C  0.15782475  0.14575935  0.08736719    -0.05200
C937        C  0.14295501  0.11931019  0.07053640    -0.32200
C938        C  0.11751861  0.09349110  0.07977517     0.36900
H939        H  0.11621393  0.11814279  0.14376977     0.17200
O940        O  0.16458607  0.16869230  0.13150345    -0.59700
H941        H  0.14984452  0.11958712  0.05004367     0.17200
O942        O  0.10217001  0.06869383  0.06276167    -0.59800
H943        H  0.11774876  0.04616689  0.06419196     0.44200
H944        H  0.14539362  0.18783482  0.13468024     0.44200
Zn945      Zn  0.00204658  0.04208723  0.60051603     1.49700
Zn946      Zn  0.95603247  0.01493820  0.64740882     1.49400
Zn947      Zn  0.99932646  0.95490336  0.61060179     1.49100
Zn948      Zn  0.04400057  0.01128061  0.64780994     1.49500
O949        O  0.00013543  0.00464056  0.62665005    -1.83500
O950        O  0.95720451  0.07244049  0.59821602    -0.74200
O951        O  0.92661967  0.96901813  0.65028289    -0.74000
O952        O  0.99840278  0.95938092  0.56985339    -0.73500
O953        O  0.92219514  0.05321544  0.63084249    -0.74200
O954        O  0.00464735  0.02031978  0.56661991    -0.73800
O955        O  0.95412482  0.92754474  0.62483310    -0.74400
O956        O  0.07138570  0.96430040  0.65033420    -0.73800
O957        O  0.96917268  0.02492826  0.68486434    -0.74500
O958        O  0.04402383  0.92423938  0.62404461    -0.73900
O959        O  0.03046016  0.02051419  0.68437947    -0.74400
O960        O  0.07966569  0.04929555  0.63406705    -0.74300
O961        O  0.04671758  0.07225454  0.60142154    -0.74100
C962        C  0.92682892  0.07280482  0.61048067     0.77700
C963        C  0.92889473  0.93652180  0.64110897     0.78200
C964        C  0.00214819  0.98888221  0.55621807     0.77200
C965        C  0.06913779  0.93210708  0.64074611     0.77500
C966        C  0.00013256  0.02300344  0.69672444     0.78700
C967        C  0.07618145  0.07080223  0.61467680     0.77700
Zn968      Zn  0.00106130  0.04852636  0.89262127     1.49700
Zn969      Zn  0.04548257  0.99240552  0.85488041     1.49400
Zn970      Zn  0.00206676  0.95876032  0.90107719     1.49100
Zn971      Zn  0.95571956  0.99025047  0.85618855     1.49500
O972        O  0.00111591  0.99859693  0.87619691    -1.83500
O973        O  0.04603436  0.07998313  0.87928973    -0.74200
O974        O  0.08024099  0.95094383  0.86714979    -0.74000
O975        O  0.99785629  0.97948962  0.93535084    -0.73500
O976        O  0.07497092  0.03931346  0.85421163    -0.74200
O977        O  0.00054628  0.04103203  0.93313267    -0.73800
O978        O  0.04946011  0.93099094  0.90169385    -0.74400
O979        O  0.92230797  0.94883612  0.87026379    -0.73800
O980        O  0.03009214  0.98786787  0.81782935    -0.74500
O981        O  0.95931844  0.92418364  0.89974046    -0.73900
O982        O  0.96852385  0.98497859  0.81855137    -0.74400
O983        O  0.92555898  0.03618663  0.85559535    -0.74300
O984        O  0.95483787  0.07736879  0.88000298    -0.74100
C985        C  0.07233642  0.07175986  0.86356915     0.77700
C986        C  0.07797389  0.93044503  0.88729239     0.78200
C987        C  0.99802093  0.01079737  0.94618657     0.77200
C988        C  0.92839280  0.92494606  0.88802922     0.77500
C989        C  0.99895457  0.98771446  0.80617712     0.78700
C990        C  0.92821032  0.06868586  0.86472921     0.77700
Zn991      Zn  0.20919056  0.25153970  0.58660031     1.49700
Zn992      Zn  0.23846041  0.20562886  0.54081288     1.49400
Zn993      Zn  0.23860024  0.29384255  0.53968513     1.49100
Zn994      Zn  0.29618105  0.24978501  0.57762959     1.49500
O995        O  0.24684636  0.25025703  0.56101289    -1.83500
O996        O  0.18157148  0.20579002  0.58931092    -0.74200
O997        O  0.23020560  0.21753518  0.50337093    -0.74000
O998        O  0.19754655  0.32793041  0.55247721    -0.73500
O999        O  0.20030362  0.17103864  0.55649293    -0.74200
O1000       O  0.17534893  0.29303028  0.58413478    -0.73800
O1001       O  0.23322205  0.27888634  0.50272526    -0.74400
O1002       O  0.32470966  0.29492323  0.56459389    -0.73800
O1003       O  0.28505540  0.17770483  0.53875699    -0.74500
O1004       O  0.28445466  0.32324176  0.53868739    -0.73900
O1005       O  0.32621313  0.20540612  0.56405341    -0.74400
O1006       O  0.29092979  0.24988633  0.61812434    -0.74300
O1007       O  0.22998492  0.25693771  0.62060938    -0.74100
C1008       C  0.18106640  0.17561155  0.57698831     0.77700
C1009       C  0.23241598  0.24791178  0.99095588     0.78200
C1010       C  0.17521550  0.32282985  0.57129958     0.77200
C1011       C  0.31661486  0.32061809  0.54846927     0.77500
C1012       C  0.31762368  0.18011921  0.54775426     0.78700
C1013       C  0.26123218  0.25455832  0.63139949     0.77700
Zn1014     Zn  0.25966555  0.20341089  0.83219553     1.49700
Zn1015     Zn  0.29484939  0.24813957  0.78772085     1.49400
Zn1016     Zn  0.20445457  0.25019637  0.79523128     1.49100
Zn1017     Zn  0.26215580  0.29425275  0.83234725     1.49500
O1018       O  0.25413276  0.24911551  0.81197411    -1.83500
O1019       O  0.29976609  0.16809444  0.81841050    -0.74200
O1020       O  0.27464393  0.24504274  0.75322893    -0.74000
O1021       O  0.17202453  0.20631839  0.80895898    -0.73500
O1022       O  0.32788781  0.20483794  0.79015713    -0.74200
O1023       O  0.21203264  0.17499195  0.83333026    -0.73800
O1024       O  0.21301527  0.24881267  0.75483785    -0.74400
O1025       O  0.21557792  0.32476486  0.83342701    -0.73800
O1026       O  0.32647400  0.29276302  0.78744589    -0.74500
O1027       O  0.17558251  0.29683269  0.80724823    -0.73900
O1028       O  0.30510083  0.32740064  0.81937889    -0.74400
O1029       O  0.26811906  0.27913709  0.86940145    -0.74300
O1030       O  0.26710004  0.21751446  0.86942968    -0.74100
C1031       C  0.32518376  0.17405988  0.80172668     0.77700
C1032       C  0.24350699  0.24597890  0.74204755     0.78200
C1033       C  0.17951722  0.17941954  0.82433646     0.77200
C1034       C  0.18340690  0.32262571  0.82339788     0.77500
C1035       C  0.32782074  0.32222872  0.80068868     0.78700
C1036       C  0.26740024  0.24834617  0.88145956     0.77700
Zn1037     Zn  0.20912681  0.74964346  0.66082897     1.49700
Zn1038     Zn  0.23979201  0.79313651  0.70821587     1.49400
Zn1039     Zn  0.23721599  0.70371550  0.70792355     1.49100
Zn1040     Zn  0.29648409  0.74676239  0.67124215     1.49500
O1041       O  0.24654389  0.74835239  0.68715854    -1.83500
O1042       O  0.17619635  0.79260329  0.66277059    -0.74200
O1043       O  0.24280885  0.77851097  0.74631452    -0.74000
O1044       O  0.19134477  0.67396140  0.69601753    -0.73500
O1045       O  0.19391968  0.82450987  0.69724692    -0.74200
O1046       O  0.17707778  0.70591798  0.66073120    -0.73800
O1047       O  0.23876465  0.71713869  0.74586906    -0.74400
O1048       O  0.32379901  0.70029806  0.68392065    -0.73800
O1049       O  0.28478173  0.82534450  0.70532995    -0.74500
O1050       O  0.28105639  0.66998586  0.70659196    -0.73900
O1051       O  0.32687502  0.79112650  0.68481284    -0.74400
O1052       O  0.29230999  0.74752349  0.63073090    -0.74300
O1053       O  0.23115660  0.75222531  0.62660618    -0.74100
C1054       C  0.17249904  0.82018737  0.67763568     0.77700
C1055       C  0.24447642  0.74734652  0.75799594     0.78200
C1056       C  0.17172237  0.67849846  0.67556079     0.77200
C1057       C  0.31401000  0.67291659  0.69810393     0.77500
C1058       C  0.31791654  0.82005009  0.69770961     0.78700
C1059       C  0.26315157  0.75071108  0.61668949     0.77700
Zn1060     Zn  0.22142190  0.75040924  0.90751717     1.49700
Zn1061     Zn  0.30830968  0.74766535  0.92223545     1.49400
Zn1062     Zn  0.24635411  0.79234755  0.95641950     1.49100
Zn1063     Zn  0.24658007  0.70371615  0.95606271     1.49500
O1064       O  0.25658824  0.74835066  0.93559632    -1.83500
O1065       O  0.24704195  0.74690439  0.87453631    -0.74200
O1066       O  0.33571557  0.79378736  0.93552007    -0.74000
O1067       O  0.20509262  0.82580303  0.94239071    -0.73500
O1068       O  0.30791326  0.74594977  0.88152814    -0.74200
O1069       O  0.19295968  0.79736883  0.90534762    -0.73800
O1070       O  0.29169413  0.82290659  0.95765060    -0.74400
O1071       O  0.24159862  0.71720565  0.99409672    -0.73800
O1072       O  0.33634200  0.70308426  0.93804856    -0.74500
O1073       O  0.24000093  0.77872710  0.99390009    -0.73900
O1074       O  0.29150210  0.67142440  0.95752847    -0.74400
O1075       O  0.20341630  0.67331793  0.94106588    -0.74300
O1076       O  0.18635686  0.70832401  0.90771300    -0.74100
C1077       C  0.27993297  0.74567534  0.86617552     0.77700
C1078       C  0.32493983  0.82071105  0.94976167     0.78200
C1079       C  0.18829247  0.82449894  0.92060448     0.77200
C1080       C  0.24150111  0.74811622  0.50603745     0.77500
C1081       C  0.32544173  0.67533025  0.95148893     0.78700
C1082       C  0.18281874  0.67917387  0.92126149     0.77700
Zn1083     Zn  0.49774236  0.03785986  0.52702481     1.49700
Zn1084     Zn  0.50070476  0.95253527  0.51414061     1.49400
Zn1085     Zn  0.45204914  0.00912679  0.97966733     1.49100
Zn1086     Zn  0.54082222  0.01325593  0.97731109     1.49500
O1087       O  0.49789071  0.00251802  0.99937337    -1.83500
O1088       O  0.49710202  0.01414816  0.56105782    -0.74200
O1089       O  0.45804628  0.92176993  0.50002529    -0.74000
O1090       O  0.42240277  0.05473484  0.99131765    -0.73500
O1091       O  0.50057743  0.95346756  0.55435530    -0.74200
O1092       O  0.45504989  0.07119506  0.52595536    -0.73800
O1093       O  0.42023101  0.96385561  0.98274659    -0.74400
O1094       O  0.52517940  0.01266658  0.93966405    -0.73800
O1095       O  0.54708028  0.92755791  0.50111854    -0.74500
O1096       O  0.46377941  0.00850516  0.94130798    -0.73900
O1097       O  0.57593024  0.97045853  0.97776609    -0.74400
O1098       O  0.56960618  0.05943489  0.98915837    -0.74300
O1099       O  0.54116095  0.07003055  0.52652045    -0.74100
C1100       C  0.49875102  0.98135190  0.56956329     0.77700
C1101       C  0.42792627  0.93043551  0.98849029     0.78200
C1102       C  0.42751039  0.07571547  0.51108264     0.77200
C1103       C  0.49400576  0.00775957  0.92851655     0.77500
C1104       C  0.57392657  0.93769695  0.98669294     0.78700
C1105       C  0.56669242  0.07731743  0.51048062     0.77700
Zn1106     Zn  0.50141613  0.03063212  0.77703102     1.49700
Zn1107     Zn  0.50002592  0.94291124  0.76474664     1.49400
Zn1108     Zn  0.45618018  0.00281279  0.72939223     1.49100
Zn1109     Zn  0.54653477  0.00243347  0.72997796     1.49500
O1110       O  0.50106291  0.99384172  0.75013199    -1.83500
O1111       O  0.49779477  0.00696937  0.81071043    -0.74200
O1112       O  0.45511519  0.91446087  0.75027678    -0.74000
O1113       O  0.42408088  0.04616679  0.74281617    -0.73500
O1114       O  0.49764720  0.94580410  0.80531593    -0.74200
O1115       O  0.45859591  0.06403097  0.77606082    -0.73800
O1116       O  0.42376995  0.95775938  0.72893202    -0.74400
O1117       O  0.53282451  0.00514784  0.69194986    -0.73800
O1118       O  0.54544458  0.91380852  0.75162557    -0.74500
O1119       O  0.47116053  0.00608291  0.69170731    -0.73900
O1120       O  0.57778205  0.95679808  0.73053928    -0.74400
O1121       O  0.57903437  0.04588682  0.74343593    -0.74300
O1122       O  0.54617834  0.06204557  0.77789541    -0.74100
C1123       C  0.49637106  0.97454964  0.81988240     0.77700
C1124       C  0.42747884  0.92438655  0.73638512     0.78200
C1125       C  0.42956976  0.06710842  0.76243094     0.77200
C1126       C  0.50207584  0.00388373  0.67974873     0.77500
C1127       C  0.57354245  0.92354258  0.73811028     0.78700
C1128       C  0.57461902  0.06586760  0.76370873     0.77700
Zn1129     Zn  0.79780415  0.75353628  0.66502864     1.49700
Zn1130     Zn  0.76706666  0.70698196  0.71005462     1.49400
Zn1131     Zn  0.76390651  0.79614747  0.71045623     1.49100
Zn1132     Zn  0.70949595  0.75014652  0.67244589     1.49500
O1133       O  0.75837726  0.75174387  0.68964867    -1.83500
O1134       O  0.82578254  0.70754286  0.66275248    -0.74200
O1135       O  0.77417609  0.71977157  0.74732404    -0.74000
O1136       O  0.80587826  0.83030836  0.69853584    -0.73500
O1137       O  0.80676138  0.67285730  0.69542207    -0.74200
O1138       O  0.83275661  0.79432807  0.66934421    -0.73800
O1139       O  0.76790844  0.78098099  0.74762515    -0.74400
O1140       O  0.67748455  0.79405332  0.68495487    -0.73800
O1141       O  0.72103670  0.67748651  0.71161328    -0.74500
O1142       O  0.71698679  0.82499050  0.70990634    -0.73900
O1143       O  0.68103585  0.70405276  0.68472249    -0.74400
O1144       O  0.71745309  0.75098219  0.63239006    -0.74300
O1145       O  0.77834618  0.75964852  0.63041454    -0.74100
C1146       C  0.82681361  0.67748295  0.67531831     0.77700
C1147       C  0.76996713  0.75009820  0.75950471     0.78200
C1148       C  0.83131662  0.82439613  0.68184113     0.77200
C1149       C  0.68486789  0.82101124  0.70018681     0.77500
C1150       C  0.68909883  0.67902063  0.70138017     0.78700
C1151       C  0.74730563  0.75619029  0.61934585     0.77700
Zn1152     Zn  0.70639021  0.75019829  0.96284203     1.49700
Zn1153     Zn  0.73864969  0.70440460  0.91782661     1.49400
Zn1154     Zn  0.73718572  0.79460878  0.91689869     1.49100
Zn1155     Zn  0.79517383  0.75092685  0.95405069     1.49500
O1156       O  0.74544464  0.74996302  0.93772331    -1.83500
O1157       O  0.67218498  0.70806853  0.96110722    -0.74200
O1158       O  0.73231173  0.71812490  0.88037092    -0.74000
O1159       O  0.69655630  0.82915321  0.93035981    -0.73500
O1160       O  0.69651587  0.67115232  0.93145258    -0.74200
O1161       O  0.67712941  0.79588256  0.96359593    -0.73800
O1162       O  0.72985342  0.77966010  0.88014856    -0.74400
O1163       O  0.82326343  0.79694995  0.94156854    -0.73800
O1164       O  0.78600141  0.67522229  0.91730573    -0.74500
O1165       O  0.78344782  0.82466218  0.91512588    -0.73900
O1166       O  0.82689462  0.70685135  0.94065500    -0.74400
O1167       O  0.78885809  0.75098720  0.99436396    -0.74300
O1168       O  0.72754742  0.74749987  0.49706643    -0.74100
C1169       C  0.67227660  0.67765864  0.94895427     0.77700
C1170       C  0.73135513  0.74887126  0.86822070     0.78200
C1171       C  0.67588774  0.82527960  0.95024495     0.77200
C1172       C  0.81544282  0.82258416  0.92533095     0.77500
C1173       C  0.81881588  0.67956535  0.92584655     0.78700
C1174       C  0.75900453  0.74889728  0.50776067     0.77700
Zn1175     Zn  0.69829166  0.24821932  0.57943564     1.49700
Zn1176     Zn  0.75608203  0.20657493  0.54121736     1.49400
Zn1177     Zn  0.75881205  0.29400866  0.54493867     1.49100
Zn1178     Zn  0.78407493  0.24496921  0.59149213     1.49500
O1179       O  0.74849283  0.24863894  0.56422401    -1.83500
O1180       O  0.66849362  0.20552266  0.56403747    -0.74200
O1181       O  0.75883197  0.22304014  0.50426241    -0.74000
O1182       O  0.71480315  0.32604241  0.54628422    -0.73500
O1183       O  0.71034382  0.17687107  0.53979072    -0.74200
O1184       O  0.67166504  0.29428175  0.56752942    -0.73800
O1185       O  0.76120325  0.28430265  0.50610195    -0.74400
O1186       O  0.81835916  0.28736136  0.59330640    -0.73800
O1187       O  0.79769825  0.17205146  0.55243067    -0.74500
O1188       O  0.80171069  0.32354061  0.56032668    -0.73900
O1189       O  0.81224727  0.19923275  0.58968832    -0.74400
O1190       O  0.76052807  0.24232305  0.62520919    -0.74300
O1191       O  0.69960002  0.24554571  0.61968497    -0.74100
C1192       C  0.67741937  0.17995901  0.54808687     0.77700
C1193       C  0.75780159  0.25437368  0.99311137     0.78200
C1194       C  0.68170275  0.32223334  0.55413147     0.77200
C1195       C  0.82175811  0.31684721  0.58020331     0.77500
C1196       C  0.81544566  0.17274045  0.57382475     0.78700
C1197       C  0.72806747  0.24274440  0.63433209     0.77700
Zn1198     Zn  0.75922452  0.20463407  0.79409008     1.49700
Zn1199     Zn  0.75609704  0.29405867  0.79238837     1.49400
Zn1200     Zn  0.69814059  0.24852962  0.82841940     1.49100
Zn1201     Zn  0.78590935  0.25304501  0.84089961     1.49500
O1202       O  0.74906402  0.24990643  0.81395453    -1.83500
O1203       O  0.76169061  0.21722684  0.75589157    -0.74200
O1204       O  0.71071371  0.32545635  0.79338671    -0.74000
O1205       O  0.67129011  0.20184722  0.81535159    -0.73500
O1206       O  0.75655885  0.27856210  0.75504267    -0.74200
O1207       O  0.71492181  0.17105172  0.79406529    -0.73800
O1208       O  0.66788804  0.29258090  0.81416139    -0.74400
O1209       O  0.76183132  0.25511676  0.87457888    -0.73800
O1210       O  0.79946754  0.32761482  0.80342145    -0.74500
O1211       O  0.70080230  0.25058543  0.86889793    -0.73900
O1212       O  0.81543243  0.29904139  0.83979398    -0.74400
O1213       O  0.82000516  0.20974934  0.84202909    -0.74300
O1214       O  0.80358453  0.17505798  0.80847707    -0.74100
C1215       C  0.75657593  0.24741105  0.74350211     0.77700
C1216       C  0.67745821  0.32092094  0.80086809     0.78200
C1217       C  0.68150386  0.17416199  0.80162283     0.77200
C1218       C  0.72927302  0.25396927  0.88359478     0.77500
C1219       C  0.81847927  0.32617653  0.82432214     0.78700
C1220       C  0.82399759  0.18076393  0.82840127     0.77700
Zn1221     Zn  0.54496317  0.48686116  0.98176007     1.49700
Zn1222     Zn  0.50267470  0.54501970  0.51949889     1.49400
Zn1223     Zn  0.45566098  0.49003509  0.98164949     1.49100
Zn1224     Zn  0.49865013  0.45736403  0.52741644     1.49500
O1225       O  0.50040001  0.49606115  0.50240576    -1.83500
O1226       O  0.57531358  0.53246183  0.97997215    -0.74200
O1227       O  0.45783796  0.57615002  0.50756275    -0.74000
O1228       O  0.47047925  0.48670461  0.94425522    -0.73500
O1229       O  0.54776636  0.57358337  0.50551301    -0.74200
O1230       O  0.53170576  0.47999269  0.94451165    -0.73800
O1231       O  0.42604973  0.53649430  0.98305105    -0.74400
O1232       O  0.45625538  0.42465395  0.52492508    -0.73800
O1233       O  0.50409317  0.53795690  0.55996065    -0.74500
O1234       O  0.42208325  0.44718775  0.99308804    -0.73900
O1235       O  0.49603478  0.47710406  0.56182800    -0.74400
O1236       O  0.54262885  0.42662975  0.52808208    -0.74300
O1237       O  0.57780692  0.44568469  0.99567807    -0.74100
C1238       C  0.57312751  0.56492724  0.98920263     0.77700
C1239       C  0.43038244  0.56856893  0.99272876     0.78200
C1240       C  0.50132853  0.48423665  0.93233275     0.77200
C1241       C  0.42710984  0.42388455  0.51137116     0.77500
C1242       C  0.49956836  0.50795354  0.57295249     0.78700
C1243       C  0.57231382  0.42466628  0.51516840     0.77700
Zn1244     Zn  0.45918398  0.51515017  0.77422482     1.49700
Zn1245     Zn  0.54964451  0.51313243  0.77355227     1.49400
Zn1246     Zn  0.50272081  0.45671543  0.73737735     1.49100
Zn1247     Zn  0.50419346  0.54508219  0.72827395     1.49500
O1248       O  0.50396758  0.50639709  0.75365277    -1.83500
O1249       O  0.47410935  0.52360487  0.81121850    -0.74200
O1250       O  0.57883386  0.46590914  0.77387587    -0.74000
O1251       O  0.45709646  0.42807685  0.75043532    -0.67100
O1252       O  0.53572946  0.51936212  0.81106147    -0.74200
O1253       O  0.43003375  0.46825610  0.77687473    -0.73800
O1254       O  0.54702830  0.42567787  0.75011955    -0.74400
O1255       O  0.50959430  0.52372903  0.69439712    -0.73800
O1256       O  0.58351447  0.55444169  0.75925779    -0.74500
O1257       O  0.50365394  0.46263371  0.69708880    -0.73900
O1258       O  0.54609110  0.57929984  0.73011467    -0.74400
O1259       O  0.45779436  0.57339020  0.72576130    -0.74300
O1260       O  0.42390082  0.55470208  0.75894340    -0.74100
C1261       C  0.50495143  0.52118420  0.82318741     0.77700
C1262       C  0.57448667  0.43344729  0.76482014     0.78200
C1263       C  0.43190357  0.43609253  0.76700454     0.77200
C1264       C  0.50802206  0.49233662  0.68377596     0.77500
C1265       C  0.57711754  0.57840592  0.74154706     0.78700
C1266       C  0.42784601  0.57448443  0.73854195     0.77700
Zn1267     Zn  0.99557476  0.46294922  0.59518747     1.49700
Zn1268     Zn  0.04260014  0.48946563  0.64272529     1.49400
Zn1269     Zn  0.99801674  0.54832222  0.60751971     1.49100
Zn1270     Zn  0.95527131  0.48941137  0.64494361     1.49500
O1271       O  0.99778303  0.49838734  0.62263081    -1.83500
O1272       O  0.04279753  0.43634254  0.59125264    -0.74200
O1273       O  0.07356748  0.53460480  0.64333926    -0.74000
O1274       O  0.99961685  0.54615997  0.56710520    -0.73500
O1275       O  0.07365570  0.44817179  0.62768253    -0.74200
O1276       O  0.98751470  0.48635979  0.56152726    -0.73800
O1277       O  0.04149814  0.57778134  0.62254783    -0.74400
O1278       O  0.92210984  0.53254383  0.64375345    -0.73800
O1279       O  0.03206336  0.48510609  0.68101986    -0.74500
O1280       O  0.95165799  0.57481751  0.62011396    -0.73900
O1281       O  0.97092161  0.49024120  0.68223301    -0.74400
O1282       O  0.92492853  0.44423017  0.63488849    -0.74300
O1283       O  0.95536369  0.42645731  0.59960763    -0.74100
C1284       C  0.07078231  0.43194769  0.60578465     0.77700
C1285       C  0.06895201  0.56810242  0.63670951     0.78200
C1286       C  0.99270368  0.51845524  0.55239878     0.77200
C1287       C  0.92472748  0.56512364  0.63472835     0.77500
C1288       C  0.00217776  0.49016252  0.69366571     0.78700
C1289       C  0.92878430  0.42263604  0.61550713     0.77700
Zn1290     Zn  0.00135256  0.55504340  0.85714531     1.49700
Zn1291     Zn  0.04525728  0.49417035  0.89289498     1.49400
Zn1292     Zn  0.95535604  0.49699640  0.89174662     1.49100
Zn1293     Zn  0.00058551  0.46694552  0.84482330     1.49500
O1294       O  0.00088171  0.50407475  0.87174550    -1.83500
O1295       O  0.04789568  0.58158427  0.86986045    -0.74200
O1296       O  0.03006813  0.49257626  0.93098632    -0.74000
O1297       O  0.92467725  0.54328875  0.89218668    -0.73500
O1298       O  0.07818743  0.53878629  0.89242091    -0.74200
O1299       O  0.95741994  0.58618250  0.87156152    -0.73800
O1300       O  0.96844819  0.49271989  0.92939932    -0.74400
O1301       O  0.95351361  0.43869805  0.84281684    -0.73800
O1302       O  0.07644203  0.44932192  0.87964571    -0.74500
O1303       O  0.92240798  0.45497214  0.87813471    -0.73900
O1304       O  0.04297181  0.43167666  0.84587231    -0.74400
O1305       O  0.00484785  0.49090933  0.81138722    -0.74300
O1306       O  0.00136209  0.55201762  0.81671598    -0.74100
C1307       C  0.07535099  0.57177279  0.88394623     0.77700
C1308       C  0.99856324  0.49422674  0.94225726     0.78200
C1309       C  0.92932912  0.57674955  0.88521906     0.77200
C1310       C  0.92520096  0.43601878  0.85729284     0.77500
C1311       C  0.07163676  0.42819345  0.85995144     0.78700
C1312       C  0.00398202  0.52332976  0.80221177     0.77700
C1313       C  0.00365489  0.50002314  0.72171783    -0.04900
C1314       C  0.97081659  0.51100155  0.73437416    -0.32300
C1315       C  0.97130019  0.52343607  0.76010476     0.36900
C1316       C  0.00486710  0.52524348  0.77380107    -0.05200
C1317       C  0.03782782  0.51521756  0.76118731    -0.32200
C1318       C  0.03753159  0.50282674  0.73539234     0.36900
H1319       H  0.94440024  0.50966623  0.72442679     0.17200
O1320       O  0.93840942  0.53071892  0.77243931    -0.59700
H1321       H  0.06368042  0.51489007  0.77191071     0.17200
O1322       O  0.07048690  0.49312899  0.72399256    -0.59800
H1323       H  0.07421549  0.46670689  0.72854436     0.44200
H1324       H  0.93314478  0.55712419  0.76870141     0.44200
C1325       C  0.99203575  0.52110741  0.52387258    -0.04900
C1326       C  0.96127800  0.50635039  0.51085839    -0.32300
C1327       C  0.96315142  0.49680596  0.98460183     0.36900
C1328       C  0.99654383  0.50162010  0.97066565    -0.05200
C1329       C  0.02706018  0.51755545  0.98358312    -0.32200
C1330       C  0.02490125  0.52747480  0.50991057     0.36900
H1331       H  0.93608535  0.50037482  0.52154078     0.17200
O1332       O  0.93233700  0.48202216  0.97296841    -0.59700
H1333       H  0.05277061  0.52240480  0.97326384     0.17200
O1334       O  0.05587209  0.54052130  0.52231567    -0.59800
H1335       H  0.05433183  0.56783363  0.52078612     0.44200
H1336       H  0.93492882  0.45485562  0.97506013     0.44200
C1337       C  0.50220645  0.49100588  0.90396788    -0.04900
C1338       C  0.47065038  0.50608864  0.89194740    -0.32300
C1339       C  0.47173652  0.51843736  0.86625895     0.36900
C1340       C  0.50470852  0.51537907  0.85169153    -0.05200
C1341       C  0.53637962  0.50046638  0.86374350    -0.32200
C1342       C  0.53531255  0.48816106  0.88949223     0.36900
H1343       H  0.44503296  0.50936437  0.90267893     0.17200
O1344       O  0.44010189  0.53297668  0.85556992    -0.59700
H1345       H  0.56193297  0.49710272  0.85294930     0.17200
O1346       O  0.56696001  0.47372550  0.90025991    -0.59800
H1347       H  0.56554834  0.44671597  0.89698073     0.44200
H1348       H  0.44163756  0.55997616  0.85884776     0.44200
C1349       C  0.49983677  0.50642591  0.60159492    -0.04900
C1350       C  0.52655132  0.52600901  0.61561420    -0.32300
C1351       C  0.53151065  0.51920722  0.64216556     0.36900
C1352       C  0.50926366  0.49274768  0.65519638    -0.05200
C1353       C  0.48286634  0.47289433  0.64114256    -0.32200
C1354       C  0.47786899  0.47969555  0.61463316     0.36900
H1355       H  0.54444135  0.54565518  0.60582720     0.17200
O1356       O  0.55791173  0.53899276  0.65538404    -0.59700
H1357       H  0.46487507  0.45334667  0.65094339     0.17200
O1358       O  0.45132325  0.45994184  0.60154055    -0.59800
H1359       H  0.42866362  0.47543468  0.60232197     0.44200
H1360       H  0.58031131  0.52307919  0.65531984     0.44200
C1361       C  0.84378330  0.35659661  0.83204455    -0.04900
C1362       C  0.84956955  0.36317070  0.85873309    -0.32300
C1363       C  0.87467100  0.39004563  0.86728687     0.36900
C1364       C  0.89540654  0.41034294  0.84910222    -0.05200
C1365       C  0.88898751  0.40451652  0.82239311    -0.32200
C1366       C  0.86301289  0.37833355  0.81382103     0.36900
H1367       H  0.83470272  0.34713109  0.87316084     0.17200
O1368       O  0.88035671  0.39454575  0.89344007    -0.59700
H1369       H  0.90445319  0.42013713  0.80805026     0.17200
O1370       O  0.85826811  0.37280981  0.78767692    -0.59800
H1371       H  0.84021206  0.39195999  0.78214612     0.44200
H1372       H  0.86098711  0.41224632  0.89912794     0.44200
C1373       C  0.64989315  0.34921701  0.79280930    -0.04900
C1374       C  0.66130559  0.38621975  0.79060290    -0.32300
C1375       C  0.63750510  0.41345611  0.78084578     0.36900
C1376       C  0.60125276  0.40415803  0.77283081    -0.05200
C1377       C  0.58994861  0.36694534  0.77459103    -0.32200
C1378       C  0.61391545  0.33961036  0.78449751     0.36900
H1379       H  0.68905833  0.39413400  0.79641198     0.17200
O1380       O  0.65017401  0.44916646  0.77918255    -0.59700
H1381       H  0.56224089  0.35908287  0.76867941     0.17200
O1382       O  0.60217170  0.30353867  0.78539271    -0.59800
H1383       H  0.60981431  0.29265817  0.76853306     0.44200
H1384       H  0.66030775  0.45156092  0.76134763     0.44200
C1385       C  0.72675820  0.25618916  0.91201912    -0.04900
C1386       C  0.73897869  0.28877353  0.92416790    -0.32300
C1387       C  0.74961848  0.28883219  0.95037862     0.36900
C1388       C  0.74874095  0.25564308  0.96488300    -0.05200
C1389       C  0.73529273  0.22333923  0.95272356    -0.32200
C1390       C  0.72432491  0.22351943  0.92663272     0.36900
H1391       H  0.74219949  0.31389002  0.91285530     0.17200
O1392       O  0.76150749  0.32131240  0.96133025    -0.59700
H1393       H  0.73346441  0.19753812  0.96338231     0.17200
O1394       O  0.71421898  0.19091620  0.91501026    -0.59800
H1395       H  0.68710265  0.18898916  0.91777817     0.44200
H1396       H  0.78866467  0.32182736  0.95837197     0.44200
C1397       C  0.72569213  0.24044328  0.66272117    -0.04900
C1398       C  0.71772959  0.27249924  0.67684819    -0.32300
C1399       C  0.72827685  0.27547944  0.70297808     0.36900
C1400       C  0.74698181  0.24586289  0.71544746    -0.05200
C1401       C  0.75296634  0.21302948  0.70147974    -0.32200
C1402       C  0.74264981  0.21029350  0.67537609     0.36900
H1403       H  0.70555324  0.29621716  0.66716583     0.17200
O1404       O  0.71987410  0.30742174  0.71610085    -0.59700
H1405       H  0.76646107  0.18960122  0.71061754     0.17200
O1406       O  0.75153601  0.17885081  0.66181422    -0.59800
H1407       H  0.72869924  0.16361213  0.66199254     0.44200
H1408       H  0.74045193  0.32471159  0.71209963     0.44200
C1409       C  0.90123015  0.39365828  0.60979702    -0.04900
C1410       C  0.91286282  0.36155757  0.59670971    -0.32300
C1411       C  0.88705874  0.33643194  0.58687552     0.36900
C1412       C  0.84906522  0.34386622  0.58919899    -0.05200
C1413       C  0.83719989  0.37516385  0.60297648    -0.32200
C1414       C  0.86303889  0.39983465  0.61356964     0.36900
H1415       H  0.94210951  0.35626299  0.59369269     0.17200
O1416       O  0.89917452  0.30527983  0.57425421    -0.59700
H1417       H  0.80785887  0.38033424  0.60563128     0.17200
O1418       O  0.85064143  0.43095654  0.62608734    -0.59800
H1419       H  0.84804994  0.42356156  0.64455666     0.44200
H1420       H  0.90255991  0.28645385  0.58808931     0.44200
C1421       C  0.65409498  0.34966425  0.54537840    -0.04900
C1422       C  0.66291617  0.37305175  0.52432973    -0.32300
C1423       C  0.63659022  0.39707787  0.51376918     0.36900
C1424       C  0.60064679  0.39815673  0.52428159    -0.05200
C1425       C  0.59194244  0.37481313  0.54537701    -0.32200
C1426       C  0.61813394  0.35068711  0.55581463     0.36900
H1427       H  0.69019625  0.37229007  0.51555594     0.17200
O1428       O  0.64631218  0.41894751  0.99307926    -0.59700
H1429       H  0.56458823  0.37514960  0.55404732     0.17200
O1430       O  0.60834552  0.32875318  0.57648073    -0.59800
H1431       H  0.59501237  0.30741218  0.56876856     0.44200
H1432       H  0.65766514  0.44135315  0.00083820     0.44200
C1433       C  0.84793351  0.65297862  0.91688039    -0.04900
C1434       C  0.88481763  0.66460329  0.91310029    -0.32300
C1435       C  0.91137869  0.64087438  0.90174672     0.36900
C1436       C  0.90153420  0.60451380  0.89439254    -0.05200
C1437       C  0.86488539  0.59288066  0.89865437    -0.32200
C1438       C  0.83829353  0.61663404  0.90941315     0.36900
H1439       H  0.89292713  0.69244593  0.91842024     0.17200
O1440       O  0.94719065  0.65295578  0.89907225    -0.59700
H1441       H  0.85665188  0.56495907  0.89361332     0.17200
O1442       O  0.80304188  0.60352017  0.91326744    -0.59800
H1443       H  0.79091835  0.60477828  0.89598891     0.44200
H1444       H  0.94775139  0.66629468  0.88222963     0.44200
C1445       C  0.64505709  0.64907455  0.95707543    -0.04900
C1446       C  0.65271456  0.61154058  0.95282897    -0.32300
C1447       C  0.63035927  0.58391002  0.96377657     0.36900
C1448       C  0.59924633  0.59348538  0.97920199    -0.05200
C1449       C  0.59119120  0.63108735  0.98292383    -0.32200
C1450       C  0.61345463  0.65865311  0.97192237     0.36900
H1451       H  0.67689154  0.60344656  0.94171569     0.17200
O1452       O  0.63942835  0.54761642  0.95925846    -0.59700
H1453       H  0.56708937  0.63932069  0.99406381     0.17200
O1454       O  0.60407127  0.69497371  0.97604770    -0.59800
H1455       H  0.58885887  0.70210878  0.96079511     0.44200
H1456       H  0.65674429  0.54079879  0.97344321     0.44200
C1457       C  0.76260843  0.74930852  0.78778256    -0.04900
C1458       C  0.75297006  0.78247682  0.80029808    -0.32300
C1459       C  0.73996834  0.78255428  0.82579499     0.36900
C1460       C  0.73710051  0.74902482  0.83976122    -0.05200
C1461       C  0.74628129  0.71575406  0.82717761    -0.32200
C1462       C  0.75902433  0.71565160  0.80155212     0.36900
H1463       H  0.75463085  0.80868982  0.79012716     0.17200
O1464       O  0.73104054  0.81584433  0.83695448    -0.59700
H1465       H  0.74465371  0.68959888  0.83742598     0.17200
O1466       O  0.76708285  0.68232684  0.79012114    -0.59800
H1467       H  0.79356839  0.67771703  0.79413465     0.44200
H1468       H  0.70432549  0.81945978  0.83318995     0.44200
C1469       C  0.75851809  0.74902059  0.53644371    -0.04900
C1470       C  0.72863199  0.73155079  0.54920106    -0.32300
C1471       C  0.72324489  0.73526679  0.57595273     0.36900
C1472       C  0.74815906  0.75642305  0.59063152    -0.05200
C1473       C  0.77806791  0.77397703  0.57787227    -0.32200
C1474       C  0.78338093  0.77033305  0.55105288     0.36900
H1475       H  0.70899002  0.71505837  0.53827741     0.17200
O1476       O  0.69467729  0.71659168  0.58765260    -0.59700
H1477       H  0.79770040  0.79046218  0.58880404     0.17200
O1478       O  0.81170757  0.78921443  0.53922359    -0.59800
H1479       H  0.83348826  0.77255951  0.54042596     0.44200
H1480       H  0.67291329  0.73320736  0.58606004     0.44200
C1481       C  0.85107678  0.64778188  0.66517567    -0.04900
C1482       C  0.87041691  0.65405009  0.64176947    -0.32300
C1483       C  0.89318803  0.62697265  0.63096724     0.36900
C1484       C  0.89727448  0.59271222  0.64353735    -0.05200
C1485       C  0.87717481  0.58592237  0.66654813    -0.32200
C1486       C  0.85443314  0.61312422  0.67745139     0.36900
H1487       H  0.86803411  0.68020053  0.63159374     0.17200
O1488       O  0.91163331  0.63459915  0.60828644    -0.59700
H1489       H  0.87998097  0.55980162  0.67671987     0.17200
O1490       O  0.83579319  0.60542022  0.70004521    -0.59800
H1491       H  0.85329089  0.61189207  0.71419326     0.44200
H1492       H  0.89502170  0.62575335  0.59425622     0.44200
C1493       C  0.66074121  0.65216797  0.71065602    -0.04900
C1494       C  0.66849279  0.62997110  0.73260627    -0.32300
C1495       C  0.64164963  0.60647681  0.74336979     0.36900
C1496       C  0.60608629  0.60459581  0.73223592    -0.05200
C1497       C  0.59853878  0.62653535  0.71013572    -0.32200
C1498       C  0.62537323  0.64980963  0.69930551     0.36900
H1499       H  0.69542046  0.63113712  0.74186843     0.17200
O1500       O  0.65076138  0.58529531  0.76455356    -0.59700
H1501       H  0.57169235  0.62540099  0.70075790     0.17200
O1502       O  0.61646424  0.67021481  0.67770487    -0.59800
H1503       H  0.62200262  0.65384298  0.66273983     0.44200
H1504       H  0.64540000  0.60112163  0.77982981     0.44200
C1505       C  0.60164315  0.89603007  0.72963733    -0.04900
C1506       C  0.63844804  0.90764325  0.72631647    -0.32300
C1507       C  0.66523753  0.88395676  0.71590550     0.36900
C1508       C  0.65565799  0.84767921  0.70825963    -0.05200
C1509       C  0.61865213  0.83613480  0.71109739    -0.32200
C1510       C  0.59181227  0.85987982  0.72188158     0.36900
H1511       H  0.64654950  0.93545687  0.73175130     0.17200
O1512       O  0.70085586  0.89669450  0.71331185    -0.59700
H1513       H  0.61067005  0.80835427  0.70552588     0.17200
O1514       O  0.55578428  0.84807731  0.72359394    -0.59800
H1515       H  0.55415652  0.83489726  0.74046235     0.44200
H1516       H  0.70231111  0.90669234  0.69538933     0.44200
C1517       C  0.60240425  0.09399909  0.77194976    -0.04900
C1518       C  0.59051700  0.12412471  0.78715948    -0.32300
C1519       C  0.61566174  0.14992774  0.79725215     0.36900
C1520       C  0.65400612  0.14586976  0.79268170    -0.05200
C1521       C  0.66590692  0.11564574  0.77738452    -0.32200
C1522       C  0.64057618  0.08996281  0.76710404     0.36900
H1523       H  0.56130222  0.12786985  0.79126372     0.17200
O1524       O  0.60220452  0.17897991  0.81155411    -0.59700
H1525       H  0.69508132  0.11180838  0.77324044     0.17200
O1526       O  0.65359334  0.06068014  0.75283290    -0.59800
H1527       H  0.65829629  0.04073019  0.76567120     0.44200
H1528       H  0.59543695  0.19819889  0.79861351     0.44200
C1529       C  0.49317092  0.97265454  0.84830141    -0.04900
C1530       C  0.46087721  0.98707468  0.85968605    -0.32300
C1531       C  0.46066062  0.99910111  0.88557119     0.36900
C1532       C  0.49335724  0.99722943  0.90057683    -0.05200
C1533       C  0.52531447  0.98155226  0.88930595    -0.32200
C1534       C  0.52530542  0.96927430  0.86347795     0.36900
H1535       H  0.43629368  0.99117623  0.84792248     0.17200
O1536       O  0.42865467  0.01371702  0.89564276    -0.59700
H1537       H  0.55061000  0.97893787  0.90049550     0.17200
O1538       O  0.55768415  0.95682859  0.85261760    -0.59800
H1539       H  0.55720182  0.92959731  0.85499498     0.44200
H1540       H  0.42981379  0.04055321  0.89164737     0.44200
C1541       C  0.50181514  0.99631171  0.65128327    -0.04900
C1542       C  0.46772013  0.99494912  0.63801554    -0.32300
C1543       C  0.46607459  0.98577868  0.61165177     0.36900
C1544       C  0.49868207  0.97757901  0.59791788    -0.05200
C1545       C  0.53261157  0.97743452  0.61110871    -0.32200
C1546       C  0.53444056  0.98660343  0.63755771     0.36900
H1547       H  0.44210536  0.00150082  0.64797396     0.17200
O1548       O  0.43263701  0.98719353  0.59901440    -0.59700
H1549       H  0.55805755  0.97226320  0.60052597     0.17200
O1550       O  0.56830039  0.98596472  0.64965196    -0.59800
H1551       H  0.57920754  0.01072740  0.64638802     0.44200
H1552       H  0.42362654  0.96127373  0.59873203     0.44200
C1553       C  0.65053719  0.85508139  0.95917151    -0.04900
C1554       C  0.62991543  0.84929355  0.98207268    -0.32300
C1555       C  0.60621148  0.87639236  0.99183757     0.36900
C1556       C  0.60220893  0.91027751  0.97865138    -0.05200
C1557       C  0.62342947  0.91662432  0.95609982    -0.32200
C1558       C  0.64731608  0.88938052  0.94629805     0.36900
H1559       H  0.63206939  0.82350122  0.99271482     0.17200
O1560       O  0.58711048  0.86933057  0.51438086    -0.59700
H1561       H  0.62077400  0.94243407  0.94552793     0.17200
O1562       O  0.66735301  0.89675570  0.92425397    -0.59800
H1563       H  0.65086357  0.88981996  0.90963691     0.44200
H1564       H  0.60276518  0.87931313  0.52857173     0.44200
C1565       C  0.64894137  0.15415410  0.53778390    -0.04900
C1566       C  0.61225464  0.15670312  0.54656939    -0.32300
C1567       C  0.58487201  0.13302641  0.53693022     0.36900
C1568       C  0.59381397  0.10608847  0.51799247    -0.05200
C1569       C  0.63003472  0.10450257  0.50839355    -0.32200
C1570       C  0.65743723  0.12819888  0.51798364     0.36900
H1571       H  0.60462553  0.17701433  0.56108897     0.17200
O1572       O  0.54923867  0.13692182  0.54586454    -0.59700
H1573       H  0.63751785  0.08403142  0.49394354     0.17200
O1574       O  0.69255998  0.12516464  0.50801981    -0.59800
H1575       H  0.69281970  0.14149237  0.49250430     0.44200
H1576       H  0.54905239  0.12518310  0.56330384     0.44200
C1577       C  0.10368125  0.59939614  0.89224112    -0.04900
C1578       C  0.13287608  0.58813782  0.90867574    -0.32300
C1579       C  0.15830952  0.61368714  0.91873782     0.36900
C1580       C  0.15494913  0.65152490  0.91263230    -0.05200
C1581       C  0.12613865  0.66276946  0.89594295    -0.32200
C1582       C  0.10065289  0.63729088  0.88590334     0.36900
H1583       H  0.13604645  0.55929333  0.91397878     0.17200
O1584       O  0.18665999  0.60114954  0.93416332    -0.59700
H1585       H  0.12317786  0.69164224  0.89062207     0.17200
O1586       O  0.07304082  0.64991840  0.86986141    -0.59800
H1587       H  0.05315013  0.65865720  0.88166116     0.44200
H1588       H  0.20707350  0.59501702  0.92199596     0.44200
C1589       C  0.35256623  0.64781421  0.96181591    -0.04900
C1590       C  0.38976945  0.65796504  0.96593334    -0.32300
C1591       C  0.41499619  0.63329999  0.97757415     0.36900
C1592       C  0.40343546  0.59751848  0.98490371    -0.05200
C1593       C  0.36630862  0.58747930  0.98095085    -0.32200
C1594       C  0.34100715  0.61214660  0.96974719     0.36900
H1595       H  0.39929736  0.68527067  0.96037081     0.17200
O1596       O  0.45134337  0.64367729  0.98023134    -0.59700
H1597       H  0.35692839  0.55997689  0.98620239     0.17200
O1598       O  0.30505292  0.60078172  0.96643291    -0.59800
H1599       H  0.30429800  0.58954762  0.94886653     0.44200
H1600       H  0.45275669  0.65596661  0.99741775     0.44200
C1601       C  0.35146926  0.84943691  0.95874954    -0.04900
C1602       C  0.38976304  0.84235871  0.95846910    -0.32300
C1603       C  0.41490939  0.86790156  0.96897024     0.36900
C1604       C  0.40196703  0.90124166  0.97996207    -0.05200
C1605       C  0.36385596  0.90852014  0.97998816    -0.32200
C1606       C  0.33871550  0.88307182  0.96967825     0.36900
H1607       H  0.40028935  0.81675498  0.95039000     0.17200
O1608       O  0.45219333  0.86045365  0.46773241    -0.59700
H1609       H  0.35345235  0.93424010  0.98799013     0.17200
O1610       O  0.30165936  0.89148366  0.97055689    -0.59800
H1611       H  0.29637060  0.90432047  0.95392408     0.44200
H1612       H  0.46044602  0.87043727  0.45073226     0.44200
C1613       C  0.28313953  0.74425743  0.83772062    -0.04900
C1614       C  0.27146035  0.71172639  0.82536795    -0.32300
C1615       C  0.25842643  0.71226259  0.79971702     0.36900
C1616       C  0.25673162  0.74596959  0.78572073    -0.05200
C1617       C  0.27045904  0.77820186  0.79776415    -0.32200
C1618       C  0.28325316  0.77752474  0.82353229     0.36900
H1619       H  0.26986361  0.68614015  0.83632951     0.17200
O1620       O  0.24660119  0.67968537  0.78887349    -0.59700
H1621       H  0.27063781  0.80430888  0.78740325     0.17200
O1622       O  0.29376920  0.80996630  0.83522585    -0.59800
H1623       H  0.27045219  0.82133176  0.84158582     0.44200
H1624       H  0.21991507  0.67796816  0.79331410     0.44200
C1625       C  0.26414842  0.75276215  0.58812099    -0.04900
C1626       C  0.24272172  0.78038624  0.57609690    -0.32300
C1627       C  0.23421341  0.77868255  0.54964744     0.36900
C1628       C  0.24692351  0.74876047  0.53457420    -0.05200
C1629       C  0.26897049  0.72136758  0.54651652    -0.32200
C1630       C  0.27781242  0.72337875  0.57306019     0.36900
H1631       H  0.23123191  0.80274945  0.58759175     0.17200
O1632       O  0.21278341  0.80606630  0.53888647    -0.59700
H1633       H  0.27973681  0.69851205  0.53518282     0.17200
O1634       O  0.29764171  0.69530133  0.58439204    -0.59800
H1635       H  0.32387863  0.70330310  0.58338973     0.44200
H1636       H  0.18696508  0.79679506  0.54001409     0.44200
C1637       C  0.14313801  0.65118631  0.66759648    -0.04900
C1638       C  0.14480646  0.61473372  0.67677534    -0.32300
C1639       C  0.12106483  0.58750021  0.66688984     0.36900
C1640       C  0.09509574  0.59630947  0.64710683    -0.05200
C1641       C  0.09259015  0.63311033  0.63865102    -0.32200
C1642       C  0.11596018  0.66038494  0.64878566     0.36900
H1643       H  0.16522041  0.60699196  0.69123129     0.17200
O1644       O  0.12381569  0.55230929  0.67672692    -0.59700
H1645       H  0.07238873  0.64094342  0.62407451     0.17200
O1646       O  0.11214388  0.69596043  0.63982683    -0.59800
H1647       H  0.09573454  0.70840087  0.65258725     0.44200
H1648       H  0.10670781  0.55176522  0.69181862     0.44200
C1649       C  0.39757707  0.59862100  0.72833275    -0.04900
C1650       C  0.40269228  0.61667165  0.70424051    -0.32300
C1651       C  0.37535638  0.63963668  0.69360794     0.36900
C1652       C  0.34186660  0.64528889  0.70697773    -0.05200
C1653       C  0.33612414  0.62637126  0.73063179    -0.32200
C1654       C  0.36358694  0.60344721  0.74136567     0.36900
H1655       H  0.42816679  0.61311885  0.69339317     0.17200
O1656       O  0.38188769  0.65656899  0.67019014    -0.59700
H1657       H  0.31064007  0.63030982  0.74141293     0.17200
O1658       O  0.35683318  0.58616020  0.76461980    -0.59800
H1659       H  0.36391215  0.60442488  0.77810774     0.44200
H1660       H  0.37251103  0.63902387  0.65691816     0.44200
C1661       C  0.34663962  0.84726778  0.70583532    -0.04900
C1662       C  0.38272621  0.83522938  0.71178623    -0.32300
C1663       C  0.40888996  0.85950393  0.72272848     0.36900
C1664       C  0.39953239  0.89685834  0.72740229    -0.05200
C1665       C  0.36361513  0.90894220  0.72102886    -0.32200
C1666       C  0.33733635  0.88461723  0.71057527     0.36900
H1667       H  0.39042112  0.80659870  0.70863593     0.17200
O1668       O  0.44392250  0.84670608  0.72782724    -0.59700
H1669       H  0.35574831  0.93752785  0.72420224     0.17200
O1670       O  0.30250812  0.89775190  0.70514994    -0.59800
H1671       H  0.30305245  0.90436357  0.68644692     0.44200
H1672       H  0.44250143  0.83576222  0.74547676     0.44200
C1673       C  0.15454077  0.34985212  0.83214711    -0.04900
C1674       C  0.16235011  0.37375894  0.85314583    -0.32300
C1675       C  0.13562678  0.39835149  0.86302280     0.36900
C1676       C  0.09998270  0.40002304  0.85187197    -0.05200
C1677       C  0.09209259  0.37594750  0.83097211    -0.32200
C1678       C  0.11875846  0.35126490  0.82115251     0.36900
H1679       H  0.18939088  0.37330316  0.86227236     0.17200
O1680       O  0.14519258  0.42127943  0.88313889    -0.59700
H1681       H  0.06505379  0.37640547  0.82183916     0.17200
O1682       O  0.10926330  0.32859642  0.80086422    -0.59800
H1683       H  0.11529588  0.34291065  0.78496678     0.44200
H1684       H  0.13932071  0.40711689  0.89913397     0.44200
C1685       C  0.35567405  0.35089014  0.79326708    -0.04900
C1686       C  0.35200100  0.38737481  0.80219478    -0.32300
C1687       C  0.37611452  0.41535564  0.79367103     0.36900
C1688       C  0.40495699  0.40726728  0.77582040    -0.05200
C1689       C  0.40903199  0.37058306  0.76735088    -0.32200
C1690       C  0.38506524  0.34263979  0.77594265     0.36900
H1691       H  0.32985571  0.39452974  0.81548705     0.17200
O1692       O  0.37119199  0.45046028  0.80317365    -0.59700
H1693       H  0.43116170  0.36326366  0.75409096     0.17200
O1694       O  0.39073137  0.30730154  0.76706481    -0.59800
H1695       H  0.40709456  0.29549343  0.78015760     0.44200
H1696       H  0.35331956  0.46236495  0.79114403     0.44200
C1697       C  0.35147133  0.14490039  0.79408730    -0.04900
C1698       C  0.33857269  0.11343801  0.78089746    -0.32300
C1699       C  0.36352698  0.08870544  0.76914731     0.36900
C1700       C  0.40198990  0.09493746  0.77101598    -0.05200
C1701       C  0.41464144  0.12637116  0.78448804    -0.32200
C1702       C  0.38976789  0.15144761  0.79557776     0.36900
H1703       H  0.30905399  0.10868715  0.77898446     0.17200
O1704       O  0.35008645  0.05787386  0.75684424    -0.59700
H1705       H  0.44408160  0.13159334  0.78644249     0.17200
O1706       O  0.40313352  0.18204446  0.80826468    -0.59800
H1707       H  0.40817924  0.20047766  0.79442179     0.44200
H1708       H  0.34501645  0.06592561  0.73876019     0.44200
C1709       C  0.23896293  0.24748060  0.96255299    -0.04900
C1710       C  0.24742829  0.28097840  0.94996408    -0.32300
C1711       C  0.25895471  0.28165019  0.92409190     0.36900
C1712       C  0.26213115  0.24831762  0.90999245    -0.05200
C1713       C  0.25415796  0.21474649  0.92265644    -0.32200
C1714       C  0.24284662  0.21406804  0.94861950     0.36900
H1715       H  0.24582198  0.30703373  0.96030046     0.17200
O1716       O  0.26719673  0.31515924  0.91293117    -0.59700
H1717       H  0.25584490  0.18872610  0.91228463     0.17200
O1718       O  0.23548998  0.18051914  0.96000977    -0.59800
H1719       H  0.25999703  0.17055740  0.96525081     0.44200
H1720       H  0.24292568  0.32621352  0.90826453     0.44200
C1721       C  0.24512984  0.24552000  0.71343543    -0.04900
C1722       C  0.22640825  0.27269005  0.69927841    -0.32300
C1723       C  0.23411843  0.27792993  0.67289492     0.36900
C1724       C  0.26042866  0.25532086  0.66003642    -0.05200
C1725       C  0.27931829  0.22824818  0.67421704    -0.32200
C1726       C  0.27181141  0.22319808  0.70068129     0.36900
H1727       H  0.20694663  0.29094421  0.70891148     0.17200
O1728       O  0.21544280  0.30512555  0.65966523    -0.59700
H1729       H  0.29874778  0.20997372  0.66457250     0.17200
O1730       O  0.29095751  0.19646149  0.71406115    -0.59800
H1731       H  0.27541634  0.17390618  0.71284780     0.44200
H1732       H  0.23153149  0.32731210  0.66079683     0.44200
C1733       C  0.09980908  0.40657915  0.59701047    -0.04900
C1734       C  0.11462867  0.38138955  0.61471622    -0.32300
C1735       C  0.13907962  0.35407829  0.60640909     0.36900
C1736       C  0.14980100  0.35218858  0.57997822    -0.05200
C1737       C  0.13639433  0.37868508  0.56245706    -0.32200
C1738       C  0.11104488  0.40552011  0.57075485     0.36900
H1739       H  0.10626348  0.38206249  0.63494065     0.17200
O1740       O  0.15311278  0.32993915  0.62451216    -0.59700
H1741       H  0.14484850  0.37806834  0.54226121     0.17200
O1742       O  0.09810483  0.43116832  0.55328681    -0.59800
H1743       H  0.07830918  0.41833452  0.54343040     0.44200
H1744       H  0.13345264  0.31113334  0.62717459     0.44200
C1745       C  0.34515279  0.34719225  0.53939479    -0.04900
C1746       C  0.33491596  0.37580712  0.52212570    -0.32300
C1747       C  0.36131422  0.40001347  0.51173444     0.36900
C1748       C  0.39879752  0.39611949  0.51863451    -0.05200
C1749       C  0.40909261  0.36711165  0.53547668    -0.32200
C1750       C  0.38279348  0.34302492  0.54591969     0.36900
H1751       H  0.30621402  0.37961891  0.51656990     0.17200
O1752       O  0.34983433  0.42827382  0.49584807    -0.59700
H1753       H  0.43780182  0.36330393  0.54104278     0.17200
O1754       O  0.39448245  0.31517039  0.56208842    -0.59800
H1755       H  0.39513220  0.32634104  0.57967657     0.44200
H1756       H  0.34982115  0.41766163  0.47808565     0.44200
C1757       C  0.34592468  0.15372879  0.53781660    -0.04900
C1758       C  0.38329289  0.15817417  0.54462861    -0.32300
C1759       C  0.41045361  0.13432107  0.53482368     0.36900
C1760       C  0.40050153  0.10487650  0.51809782    -0.05200
C1761       C  0.36352836  0.10132986  0.51040558    -0.32200
C1762       C  0.33636069  0.12519444  0.52009690     0.36900
H1763       H  0.39164140  0.18031646  0.55753778     0.17200
O1764       O  0.44662300  0.13965977  0.04218339    -0.59700
H1765       H  0.35528011  0.07906967  0.49755664     0.17200
O1766       O  0.30051246  0.12014629  0.51198612    -0.59800
H1767       H  0.28992789  0.10157439  0.52409001     0.44200
H1768       H  0.45767901  0.15507526  0.02823716     0.44200
C1769       C  0.85174753  0.15268784  0.83693145    -0.04900
C1770       C  0.84779011  0.11573006  0.82916910    -0.32300
C1771       C  0.87164002  0.08811440  0.83852858     0.36900
C1772       C  0.90066839  0.09705955  0.85603532    -0.05200
C1773       C  0.90470777  0.13413556  0.86367073    -0.32200
C1774       C  0.88057055  0.16167499  0.85448395     0.36900
H1775       H  0.82554548  0.10790555  0.81614811     0.17200
O1776       O  0.86568772  0.05232548  0.83069640    -0.59700
H1777       H  0.92688582  0.14204115  0.87671335     0.17200
O1778       O  0.88612117  0.19751522  0.86233405    -0.59800
H1779       H  0.87467763  0.19914616  0.87982256     0.44200
H1780       H  0.87648089  0.05072037  0.81301332     0.44200
C1781       C  0.84422735  0.84966593  0.91681915    -0.04900
C1782       C  0.83497112  0.87739367  0.89860659    -0.32300
C1783       C  0.86183267  0.90167261  0.88866441     0.36900
C1784       C  0.89909842  0.89848498  0.89663265    -0.05200
C1785       C  0.90819027  0.87103236  0.91503450    -0.32200
C1786       C  0.88139234  0.84687825  0.92501666     0.36900
H1787       H  0.80670146  0.88030394  0.89182469     0.17200
O1788       O  0.85116381  0.92837383  0.87123749    -0.59700
H1789       H  0.93641220  0.86812355  0.92190839     0.17200
O1790       O  0.89205864  0.82073841  0.94285262    -0.59800
H1791       H  0.90120813  0.79954816  0.93242309     0.44200
H1792       H  0.84253526  0.94944079  0.88200088     0.44200
C1793       C  0.16276161  0.85450540  0.91228532    -0.04900
C1794       C  0.15572278  0.85968363  0.88556415    -0.32300
C1795       C  0.12927493  0.88534271  0.87694549     0.36900
C1796       C  0.10892246  0.90600626  0.89512413    -0.05200
C1797       C  0.11686568  0.90185251  0.92173742    -0.32200
C1798       C  0.14390188  0.87686541  0.93034388     0.36900
H1799       H  0.17035815  0.84329377  0.87123581     0.17200
O1800       O  0.12255000  0.88888992  0.85083176    -0.59700
H1801       H  0.10172325  0.91787787  0.93601848     0.17200
O1802       O  0.15009122  0.87313557  0.95650361    -0.59800
H1803       H  0.16859512  0.89246116  0.96081844     0.44200
H1804       H  0.10332393  0.87012339  0.84685901     0.44200
C1805       C  0.15053217  0.15253658  0.83290886    -0.04900
C1806       C  0.16010768  0.11503099  0.83520819    -0.32300
C1807       C  0.13527640  0.08898984  0.84548134     0.36900
C1808       C  0.10000213  0.10007538  0.85464431    -0.05200
C1809       C  0.09054757  0.13785470  0.85281098    -0.32200
C1810       C  0.11530722  0.16386922  0.84183959     0.36900
H1811       H  0.18724162  0.10572766  0.82897240     0.17200
O1812       O  0.14637917  0.05274491  0.84718351    -0.59700
H1813       H  0.06363720  0.14717776  0.85945001     0.17200
O1814       O  0.10554608  0.20053231  0.84120459    -0.59800
H1815       H  0.09177116  0.20374778  0.82468491     0.44200
H1816       H  0.14318905  0.04252048  0.82943951     0.44200
C1817       C  0.00073531  0.01846153  0.72534555    -0.04900
C1818       C  0.96722096  0.01865629  0.73920390    -0.32300
C1819       C  0.96586123  0.00750242  0.76521209     0.36900
C1820       C  0.99836648  0.99521130  0.77789290    -0.05200
C1821       C  0.03198696  0.99585469  0.76420771    -0.32200
C1822       C  0.03348126  0.00744080  0.73836248     0.36900
H1823       H  0.94167188  0.02684858  0.72975341     0.17200
O1824       O  0.93259860  0.00928610  0.77803771    -0.59700
H1825       H  0.05757138  0.98765185  0.77361543     0.17200
O1826       O  0.06722582  0.00747721  0.72605821    -0.59800
H1827       H  0.07146847  0.98146145  0.72067600     0.44200
H1828       H  0.93120956  0.03487899  0.78492400     0.44200
C1829       C  0.99653106  0.00954860  0.97472752    -0.04900
C1830       C  0.02787732  0.01981881  0.98890792    -0.32300
C1831       C  0.03137775  0.00963578  0.51503619     0.36900
C1832       C  0.00309785  0.98933563  0.52760793    -0.05200
C1833       C  0.97163172  0.97912198  0.51344156    -0.32200
C1834       C  0.96849575  0.98862369  0.98710104     0.36900
H1835       H  0.05042915  0.03430356  0.97941947     0.17200
O1836       O  0.06234533  0.02042483  0.52844178    -0.59700
H1837       H  0.94896070  0.96493387  0.52300139     0.17200
O1838       O  0.93761517  0.97781726  0.97352595    -0.59800
H1839       H  0.94216798  0.95162706  0.96872753     0.44200
H1840       H  0.07930946  0.99885130  0.52778435     0.44200
C1841       C  0.84010117  0.14252898  0.58153086    -0.04900
C1842       C  0.86743543  0.12989303  0.56454491    -0.32300
C1843       C  0.89566996  0.10677740  0.57366658     0.36900
C1844       C  0.89633659  0.09569118  0.60011061    -0.05200
C1845       C  0.86730637  0.10637264  0.61650613    -0.32200
C1846       C  0.83936626  0.12964619  0.60740140     0.36900
H1847       H  0.86801124  0.13942999  0.54457659     0.17200
O1848       O  0.92224123  0.09495506  0.55649750    -0.59700
H1849       H  0.86680485  0.09759722  0.63664048     0.17200
O1850       O  0.81200746  0.14071930  0.62420519    -0.59800
H1851       H  0.79110837  0.12346675  0.62110104     0.44200
H1852       H  0.93993455  0.11584171  0.55495691     0.44200
C1853       C  0.85813042  0.85346980  0.67461208    -0.04900
C1854       C  0.84700759  0.89064247  0.67466470    -0.32300
C1855       C  0.86907639  0.91786726  0.66301755     0.36900
C1856       C  0.90318021  0.90814394  0.65130353    -0.05200
C1857       C  0.91456841  0.87107232  0.65180231    -0.32200
C1858       C  0.89257708  0.84394783  0.66343737     0.36900
H1859       H  0.82033597  0.89841540  0.68265424     0.17200
O1860       O  0.85665841  0.95375448  0.66281149    -0.59700
H1861       H  0.94101331  0.86307448  0.64356004     0.17200
O1862       O  0.90483169  0.80800217  0.66341494    -0.59800
H1863       H  0.91903370  0.80520060  0.67979378     0.44200
H1864       H  0.84247549  0.95630668  0.64639746     0.44200
C1865       C  0.14388539  0.84805020  0.67041967    -0.04900
C1866       C  0.14853965  0.88516354  0.67743739    -0.32300
C1867       C  0.12507236  0.91270619  0.66753351     0.36900
C1868       C  0.09562187  0.90345496  0.65040797    -0.05200
C1869       C  0.09045897  0.86612840  0.64392608    -0.32200
C1870       C  0.11404441  0.83864347  0.65376210     0.36900
H1871       H  0.17136533  0.89316730  0.68989673     0.17200
O1872       O  0.13153445  0.94866441  0.67474039    -0.59700
H1873       H  0.06788655  0.85804028  0.63127265     0.17200
O1874       O  0.10780746  0.80260343  0.64663135    -0.59800
H1875       H  0.09230713  0.79203079  0.66071708     0.44200
H1876       H  0.14888568  0.95854745  0.66148615     0.44200
C1877       C  0.10700517  0.09373286  0.60611394    -0.04900
C1878       C  0.12381433  0.11816893  0.62339140    -0.32300
C1879       C  0.14885862  0.14445972  0.61416867     0.36900
C1880       C  0.15777331  0.14577706  0.58736623    -0.05200
C1881       C  0.14291536  0.11933222  0.57052621    -0.32200
C1882       C  0.11748389  0.09349940  0.57975378     0.36900
H1883       H  0.11615234  0.11811676  0.64375482     0.17200
O1884       O  0.16450321  0.16869321  0.63150994    -0.59700
H1885       H  0.14981229  0.11962077  0.55003480     0.17200
O1886       O  0.10214645  0.06870855  0.56272994    -0.59800
H1887       H  0.11774003  0.04619027  0.56414717     0.44200
H1888       H  0.14530389  0.18783076  0.63468127     0.44200
loop_ 
_geom_bond_atom_site_label_1 
_geom_bond_atom_site_label_2 
_geom_bond_distance 
_geom_bond_site_symmetry_2 
_ccdc_geom_bond_type 
Zn1           O5   1.908       .  S
Zn1           O6   1.958   1_455  S
Zn1          O10   1.917       .  S
Zn1          O17   1.947       .  S
Zn2           O5   1.953   1_655  S
Zn2           O7   1.976   1_545  S
Zn2           O9   2.032       .  S
Zn2          O13   2.018       .  S
Zn3           O5   1.979   1_665  S
Zn3           O8   2.103       .  S
Zn3          O11   2.043       .  S
Zn3          O14   2.075   1_655  S
Zn4           O5   1.937       .  S
Zn4          O12   1.968   1_545  S
Zn4          O15   1.973       .  S
Zn4          O16   2.011       .  S
O6           C18   1.265       .  A
O7           C19   1.269       .  A
O8           C20   1.283   1_655  A
O9           C18   1.275       .  A
O10          C20   1.260   1_545  A
O11          C19   1.279       .  A
O12          C21   1.267       .  A
O13          C22   1.275   1_655  A
O14          C21   1.281       .  A
O15          C22   1.269       .  A
O16          C23   1.270       .  A
O17          C23   1.264       .  A
C18         C900   1.476       .  S
C19         C912   1.479       .  S
C20         C888   1.473       .  S
C21         C924   1.493       .  S
C22         C873   1.482       .  S
C23         C933   1.455       .  S
Zn24         O28   1.993   1_545  S
Zn24         O29   2.097       .  S
Zn24         O33   2.102       .  S
Zn24         O40   2.071   1_455  S
Zn25         O28   1.954       .  S
Zn25         O30   2.052       .  S
Zn25         O32   2.002   1_565  S
Zn25         O36   1.993       .  S
Zn26         O28   1.926       .  S
Zn26         O31   1.923   1_455  S
Zn26         O34   1.983       .  S
Zn26         O37   1.987   1_455  S
Zn27         O28   1.959   1_655  S
Zn27         O35   2.053       .  S
Zn27         O38   2.000       .  S
Zn27         O39   1.985   1_565  S
O29          C41   1.282       .  A
O30          C42   1.276       .  A
O31          C43   1.262   1_565  A
O32          C41   1.271       .  A
O33          C43   1.285   1_455  A
O34          C42   1.268       .  A
O35          C44   1.276       .  A
O36          C45   1.274   1_455  A
O37          C44   1.269       .  A
O38          C45   1.273       .  A
O39          C46   1.269       .  A
O40          C46   1.281       .  A
C41         C864   1.501       .  S
C42         C852   1.479       .  S
C43         C885   1.470       .  S
C44         C840   1.493       .  S
C45         C876   1.480       .  S
C46         C828   1.496       .  S
Zn47         O51   1.893       .  S
Zn47         O52   1.936       .  S
Zn47         O56   1.937       .  S
Zn47         O63   1.915       .  S
Zn48         O51   1.943       .  S
Zn48         O53   1.996       .  S
Zn48         O55   2.027       .  S
Zn48         O59   1.963       .  S
Zn49         O51   1.941       .  S
Zn49         O54   2.036       .  S
Zn49         O57   1.987       .  S
Zn49         O60   1.967       .  S
Zn50         O51   1.975       .  S
Zn50         O58   2.042       .  S
Zn50         O61   2.058       .  S
Zn50         O62   2.093       .  S
O52          C64   1.262       .  A
O53        C1009   1.272   1_554  A
O54          C66   1.273       .  A
O55          C64   1.274       .  A
O56          C66   1.263       .  A
O57        C1009   1.272   1_554  A
O58          C67   1.278       .  A
O59          C68   1.266       .  A
O60          C67   1.269       .  A
O61          C68   1.279       .  A
O62          C69   1.282       .  A
O63          C69   1.260       .  A
C64         C936   1.467       .  S
C65         O997   1.272       .  A
C65        O1001   1.272       .  A
C65         C765   1.481       .  S
C66         C792   1.472       .  S
C67         C801   1.483       .  S
C68         C813   1.488       .  S
C69         C780   1.475       .  S
Zn70         O74   1.961       .  S
Zn70         O75   2.055       .  S
Zn70         O79   2.003       .  S
Zn70         O86   2.001       .  S
Zn71         O74   1.928       .  S
Zn71         O76   1.923       .  S
Zn71         O78   1.971       .  S
Zn71         O82   1.976       .  S
Zn72         O74   1.990       .  S
Zn72         O77   2.094       .  S
Zn72         O80   2.103       .  S
Zn72         O83   2.076       .  S
Zn73         O74   1.961       .  S
Zn73         O81   2.010       .  S
Zn73         O84   2.069       .  S
Zn73         O85   1.995       .  S
O75          C87   1.275       .  A
O76          C88   1.263       .  A
O77          C89   1.282       .  A
O78          C87   1.265       .  A
O79          C89   1.271       .  A
O80          C88   1.286       .  A
O81          C90   1.273       .  A
O82          C91   1.266       .  A
O83          C90   1.281       .  A
O84          C91   1.278       .  A
O85          C92   1.274       .  A
O86          C92   1.275       .  A
C87         C753   1.471       .  S
C88         C777   1.474       .  S
C89         C861   1.494       .  S
C90         C729   1.502       .  S
C91         C741   1.493       .  S
C92         C768   1.481       .  S
Zn93         O97   1.914       .  S
Zn93         O98   1.957       .  S
Zn93        O102   1.959       .  S
Zn93        O109   1.934       .  S
Zn94         O97   1.964       .  S
Zn94         O99   2.033       .  S
Zn94        O101   2.083       .  S
Zn94        O105   2.004       .  S
Zn95         O97   1.963       .  S
Zn95        O100   2.068       .  S
Zn95        O103   2.013       .  S
Zn95        O106   1.998       .  S
Zn96         O97   1.980       .  S
Zn96        O104   2.053       .  S
Zn96        O107   2.065       .  S
Zn96        O108   2.091       .  S
O98         C110   1.264       .  A
O99         C111   1.277       .  A
O100        C112   1.279       .  A
O101        C110   1.281       .  A
O102        C112   1.265       .  A
O103        C111   1.275       .  A
O104        C113   1.279       .  A
O105        C114   1.273       .  A
O106        C113   1.271       .  A
O107        C114   1.280       .  A
O108        C115   1.282       .  A
O109        C115   1.264       .  A
C110        C921   1.489       .  S
C111        C672   1.495       .  S
C112        C693   1.486       .  S
C113        C708   1.488       .  S
C114        C717   1.489       .  S
C115        C681   1.473       .  S
Zn116       O120   1.925       .  S
Zn116       O121   1.937       .  S
Zn116       O125   1.986       .  S
Zn116       O132   1.979       .  S
Zn117       O120   1.989       .  S
Zn117       O122   2.056       .  S
Zn117       O124   2.096       .  S
Zn117       O128   2.068       .  S
Zn118       O120   1.953       .  S
Zn118       O123   2.049       .  S
Zn118       O126   1.976       .  S
Zn118       O129   2.004       .  S
Zn119       O120   1.959       .  S
Zn119       O127   2.026       .  S
Zn119       O130   1.998       .  S
Zn119       O131   2.057       .  S
O121        C133   1.263       .  A
O122        C134   1.279       .  A
O123        C135   1.276       .  A
O124        C133   1.282       .  A
O125        C135   1.268       .  A
O126        C134   1.269       .  A
O127       C1080   1.275       .  A
O128        C137   1.280       .  A
O129       C1080   1.273       .  A
O130        C137   1.272       .  A
O131        C138   1.279       .  A
O132        C138   1.269       .  A
C133        C669   1.470       .  S
C134        C657   1.487       .  S
C135        C849   1.485       .  S
C136       O1071   1.275   1_554  A
C136       O1073   1.273   1_554  A
C136        C684   1.482       .  S
C137        C645   1.492       .  S
C138        C636   1.486       .  S
Zn139      O1087   1.911   1_554  S
Zn139       O144   1.949       .  S
Zn139       O148   1.956       .  S
Zn139       O155   1.952       .  S
Zn140      O1087   1.962   1_564  S
Zn140       O145   2.034       .  S
Zn140       O147   2.070       .  S
Zn140       O151   2.016       .  S
Zn141       O143   1.955       .  S
Zn141       O146   2.054       .  S
Zn141       O149   2.005   1_545  S
Zn141       O152   2.019       .  S
Zn142       O143   1.959       .  S
Zn142       O150   2.018       .  S
Zn142       O153   1.999   1_545  S
Zn142       O154   2.059       .  S
O143      Zn1083   1.911       .  S
O143      Zn1084   1.962   1_545  S
O144        C156   1.264   1_545  A
O145       C1101   1.276   1_554  A
O146       C1102   1.278       .  A
O147        C156   1.278       .  A
O148        C158   1.265       .  A
O149        C157   1.273       .  A
O150        C159   1.275       .  A
O151       C1104   1.275   1_554  A
O152        C159   1.274       .  A
O153        C160   1.271       .  A
O154       C1105   1.279       .  A
O155        C161   1.265       .  A
C156        C600   1.466       .  S
C157       O1089   1.276       .  A
C157        C660   1.478       .  S
C158       O1090   1.278   1_554  A
C158        C816   1.480       .  S
C159        C588   1.488   1_545  S
C160       O1095   1.275       .  A
C160        C612   1.481       .  S
C161       O1098   1.279   1_554  A
C161        C624   1.480       .  S
Zn162       O166   1.920   1_545  S
Zn162       O167   1.936       .  S
Zn162       O171   1.961       .  S
Zn162       O178   1.975       .  S
Zn163       O166   1.988       .  S
Zn163       O168   2.060       .  S
Zn163       O170   2.093       .  S
Zn163       O174   2.061       .  S
Zn164       O166   1.967   1_545  S
Zn164       O169   2.067       .  S
Zn164       O172   2.005   1_545  S
Zn164       O175   2.017       .  S
Zn165       O166   1.966   1_545  S
Zn165       O173   2.021       .  S
Zn165       O176   1.998   1_545  S
Zn165       O177   2.080       .  S
O167        C179   1.264   1_545  A
O168        C180   1.278       .  A
O169        C181   1.278       .  A
O170        C179   1.282       .  A
O171        C181   1.265       .  A
O172        C180   1.272       .  A
O173        C182   1.276       .  A
O174        C183   1.279       .  A
O175        C182   1.277       .  A
O176        C183   1.272       .  A
O177        C184   1.279       .  A
O178        C184   1.267       .  A
C179        C585   1.469       .  S
C180        C720   1.491       .  S
C181        C756   1.482       .  S
C182        C597   1.491   1_545  S
C183        C561   1.486       .  S
C184        C573   1.490       .  S
Zn185       O189   1.906       .  S
Zn185       O190   1.948       .  S
Zn185       O194   1.954       .  S
Zn185       O201   1.927       .  S
Zn186       O189   1.953       .  S
Zn186       O191   1.990       .  S
Zn186       O193   2.035       .  S
Zn186       O197   1.976       .  S
Zn187       O189   1.940       .  S
Zn187       O192   2.048       .  S
Zn187       O195   1.995       .  S
Zn187       O198   1.988       .  S
Zn188       O189   1.975       .  S
Zn188       O196   2.066       .  S
Zn188       O199   2.056       .  S
Zn188       O200   2.082       .  S
O190        C202   1.264       .  A
O191        C203   1.272       .  A
O192        C204   1.275       .  A
O193        C202   1.274       .  A
O194        C204   1.264       .  A
O195        C203   1.274       .  A
O196        C205   1.279       .  A
O197        C206   1.268       .  A
O198        C205   1.271       .  A
O199        C206   1.279       .  A
O200        C207   1.283       .  A
O201        C207   1.263       .  A
C202        C537   1.480       .  S
C203        C513   1.480       .  S
C204        C909   1.476       .  S
C205        C564   1.488       .  S
C206        C549   1.489       .  S
C207        C528   1.478       .  S
Zn208       O212   1.912       .  S
Zn208       O213   1.962       .  S
Zn208       O217   1.960       .  S
Zn208      O1168   1.920       .  S
Zn209       O212   1.955       .  S
Zn209       O214   2.003       .  S
Zn209       O216   2.061       .  S
Zn209       O220   2.008       .  S
Zn210       O212   1.959       .  S
Zn210       O215   2.046       .  S
Zn210       O218   1.985       .  S
Zn210       O221   1.994       .  S
Zn211       O212   1.982       .  S
Zn211       O219   2.050       .  S
Zn211       O222   2.079       .  S
Zn211       O223   2.087       .  S
O213        C225   1.265       .  A
O214        C226   1.275       .  A
O215        C227   1.274       .  A
O216        C225   1.278       .  A
O217        C227   1.265       .  A
O218        C226   1.272       .  A
O219        C228   1.278       .  A
O220        C229   1.273       .  A
O221        C228   1.271       .  A
O222        C229   1.281       .  A
O223       C1174   1.283       .  A
O224      Zn1152   1.921       .  S
O224        C230   1.263   1_556  A
C225        C501   1.485       .  S
C226        C516   1.479       .  S
C227        C609   1.486       .  S
C228        C837   1.493       .  S
C229        C489   1.497       .  S
C230       O1167   1.283   1_554  A
C230        C525   1.476       .  S
Zn231       O235   1.974       .  S
Zn231       O236   2.042       .  S
Zn231       O240   2.016       .  S
Zn231       O247   2.074       .  S
Zn232       O235   1.947       .  S
Zn232       O237   1.995       .  S
Zn232       O239   1.971       .  S
Zn232       O243   2.035       .  S
Zn233       O235   1.951       .  S
Zn233       O238   1.966       .  S
Zn233       O241   2.031       .  S
Zn233       O244   2.041       .  S
Zn234       O235   1.907       .  S
Zn234       O242   1.972       .  S
Zn234       O245   1.942       .  S
Zn234       O246   1.934       .  S
O236        C248   1.278       .  A
O237       C1193   1.272   1_554  A
O238        C250   1.268       .  A
O239        C248   1.267       .  A
O240        C250   1.275       .  A
O241       C1193   1.275   1_554  A
O242        C251   1.266       .  A
O243        C252   1.274       .  A
O244        C251   1.276       .  A
O245        C252   1.264       .  A
O246        C253   1.262       .  A
O247        C253   1.278       .  A
C248        C621   1.486       .  S
C249       O1181   1.272       .  A
C249       O1185   1.275       .  A
C249        C444   1.490       .  S
C250        C477   1.475       .  S
C251        C468   1.463       .  S
C252        C897   1.462       .  S
C253        C453   1.466       .  S
Zn254       O258   1.964       .  S
Zn254       O259   2.019       .  S
Zn254       O263   2.008       .  S
Zn254       O270   2.061       .  S
Zn255       O258   1.959       .  S
Zn255       O260   1.993       .  S
Zn255       O262   2.003       .  S
Zn255       O266   2.061       .  S
Zn256       O258   1.983       .  S
Zn256       O261   2.060       .  S
Zn256       O264   2.064       .  S
Zn256       O267   2.087       .  S
Zn257       O258   1.925       .  S
Zn257       O265   1.940       .  S
Zn257       O268   1.975       .  S
Zn257       O269   1.991       .  S
O259        C271   1.276       .  A
O260        C272   1.271       .  A
O261        C273   1.280       .  A
O262        C271   1.273       .  A
O263        C273   1.272       .  A
O264        C272   1.279       .  A
O265        C274   1.264       .  A
O266        C275   1.277       .  A
O267        C274   1.282       .  A
O268        C275   1.267       .  A
O269        C276   1.269       .  A
O270        C276   1.280       .  A
C271        C456   1.486       .  S
C272        C429   1.485       .  S
C273        C576   1.498       .  S
C274        C441   1.468       .  S
C275        C417   1.484       .  S
C276        C825   1.491       .  S
Zn277      O1225   1.955       .  S
Zn277       O282   1.981       .  S
Zn277       O286   1.991       .  S
Zn277       O293   2.032       .  S
Zn278       O281   1.978       .  S
Zn278       O283   2.063       .  S
Zn278       O285   2.057       .  S
Zn278       O289   2.099       .  S
Zn279      O1225   1.948       .  S
Zn279       O284   2.001       .  S
Zn279       O287   1.991       .  S
Zn279       O290   2.052       .  S
Zn280       O281   1.901       .  S
Zn280       O288   1.938       .  S
Zn280       O291   1.912       .  S
Zn280       O292   1.937       .  S
O281      Zn1221   1.955   1_554  S
O281      Zn1223   1.948   1_554  S
O282        C294   1.269       .  A
O283       C1239   1.280   1_554  A
O284        C296   1.274       .  A
O285       C1238   1.280   1_554  A
O286        C296   1.272       .  A
O287        C295   1.272       .  A
O288        C297   1.262       .  A
O289        C298   1.284       .  A
O290       C1241   1.275       .  A
O291        C298   1.260       .  A
O292        C299   1.263       .  A
O293       C1243   1.273       .  A
C294       O1229   1.280       .  A
C294        C504   1.489       .  S
C295       O1227   1.280       .  A
C295        C648   1.483       .  S
C296        C393   1.480       .  S
C297       O1234   1.275   1_554  A
C297        C804   1.480       .  S
C298        C405   1.475       .  S
C299       O1237   1.273   1_554  A
C299        C480   1.477       .  S
Zn300       O304   1.958       .  S
Zn300       O305   2.002       .  S
Zn300       O309   1.999       .  S
Zn300       O316   2.068       .  S
Zn301       O304   1.956       .  S
Zn301       O306   2.005       .  S
Zn301       O308   2.008       .  S
Zn301       O312   2.065       .  S
Zn302       O304   1.982       .  S
Zn302       O307   2.058       .  S
Zn302       O310   2.060       .  S
Zn302       O313   2.085       .  S
Zn303       O304   1.912       .  S
Zn303       O311   1.917       .  S
Zn303       O314   1.956       .  S
Zn303       O315   1.966       .  S
O305        C317   1.275       .  A
O306        C318   1.272       .  A
O307        C319   1.280       .  A
O308        C317   1.276       .  A
O309        C319   1.271       .  A
O310        C318   1.278       .  A
O311        C320   1.261       .  A
O312        C321   1.278       .  A
O313        C320   1.283       .  A
O314        C321   1.265       .  A
O315        C322   1.266       .  A
O316        C322   1.278       .  A
C317        C396   1.482       .  S
C318        C432   1.490       .  S
C319        C744   1.495       .  S
C320        C408   1.472       .  S
C321        C552   1.489       .  S
C322        C705   1.493       .  S
Zn323       O327   1.909       .  S
Zn323       O328   1.967   1_655  S
Zn323       O332   1.949       .  S
Zn323       O339   1.974       .  S
Zn324       O327   1.946   1_455  S
Zn324       O329   1.978       .  S
Zn324       O331   2.020       .  S
Zn324       O335   2.013       .  S
Zn325       O327   1.964       .  S
Zn325       O330   2.082       .  S
Zn325       O333   2.049   1_655  S
Zn325       O336   2.034       .  S
Zn326       O327   1.944       .  S
Zn326       O334   1.966       .  S
Zn326       O337   2.001       .  S
Zn326       O338   2.034       .  S
O328        C340   1.267       .  A
O329        C341   1.268       .  A
O330        C342   1.280       .  A
O331        C340   1.275       .  A
O332        C342   1.265       .  A
O333        C341   1.278       .  A
O334        C343   1.269       .  A
O335        C344   1.273       .  A
O336        C343   1.278       .  A
O337        C344   1.272   1_655  A
O338        C345   1.275       .  A
O339        C345   1.268       .  A
C340        C789   1.463       .  S
C341        C696   1.489       .  S
C342        C381   1.471       .  S
C343        C540   1.477       .  S
C344        C369   1.488       .  S
C345        C465   1.474       .  S
Zn346       O350   1.989       .  S
Zn346       O351   2.043       .  S
Zn346       O355   2.081   1_455  S
Zn346       O362   2.084       .  S
Zn347       O350   1.969       .  S
Zn347       O352   2.036       .  S
Zn347       O354   2.003       .  S
Zn347       O358   2.088       .  S
Zn348       O350   1.956   1_655  S
Zn348       O353   2.006       .  S
Zn348       O356   2.000       .  S
Zn348       O359   2.053       .  S
Zn349       O350   1.930       .  S
Zn349       O357   1.985   1_455  S
Zn349       O360   1.991       .  S
Zn349       O361   1.931       .  S
O351        C363   1.278       .  A
O352        C364   1.278   1_455  A
O353        C365   1.272       .  A
O354        C363   1.273       .  A
O355        C365   1.280       .  A
O356        C364   1.274       .  A
O357        C366   1.268       .  A
O358        C367   1.281       .  A
O359        C366   1.277       .  A
O360        C367   1.269       .  A
O361        C368   1.263       .  A
O362        C368   1.282       .  A
C363        C633   1.492       .  S
C364        C384   1.488       .  S
C365        C492   1.495       .  S
C366        C420   1.482       .  S
C367        C732   1.502       .  S
C368        C372   1.464       .  S
C369        C370   1.409   1_455  A
C369        C374   1.414       .  A
C370        C371   1.399       .  A
C370        H375   1.083       .  S
C371        C372   1.403   1_655  A
C371        O376   1.372       .  S
C372        C373   1.403       .  A
C373        C374   1.402       .  A
C373        H377   1.084       .  S
C374        O378   1.372       .  S
O376        H380   0.991       .  S
O378        H379   0.992       .  S
C381        C382   1.402       .  A
C381        C386   1.406   1_655  A
C382       C1327   1.398   1_554  A
C382        H387   1.084       .  S
C383        C384   1.413       .  A
C383       C1326   1.398       .  A
C383        O388   1.372       .  S
C384        C385   1.410   1_655  A
C385       C1330   1.405       .  A
C385        H389   1.083       .  S
C386       C1329   1.405   1_554  A
C386        O390   1.371       .  S
O388        H392   0.992       .  S
O390        H391   0.991       .  S
C393        C394   1.405       .  A
C393        C398   1.412       .  A
C394        C395   1.395       .  A
C394        H399   1.083       .  S
C395        C396   1.411       .  A
C395        O400   1.371       .  S
C396        C397   1.407       .  A
C397        C398   1.398       .  A
C397        H401   1.083       .  S
C398        O402   1.372       .  S
O400        H404   0.992       .  S
O402        H403   0.992       .  S
C405        C406   1.397       .  A
C405        C410   1.418       .  A
C406        C407   1.400       .  A
C406        H411   1.084       .  S
C407        C408   1.417       .  A
C407        O412   1.372       .  S
C408        C409   1.395       .  A
C409        C410   1.398       .  A
C409        H413   1.084       .  S
C410        O414   1.372       .  S
O412        H416   0.992       .  S
O414        H415   0.992       .  S
C417        C418   1.410       .  A
C417        C422   1.406       .  A
C418        C419   1.400       .  A
C418        H423   1.084       .  S
C419        C420   1.405       .  A
C419        O424   1.371       .  S
C420        C421   1.410       .  A
C421        C422   1.404       .  A
C421        H425   1.084       .  S
C422        O426   1.371       .  S
O424        H428   0.992       .  S
O426        H427   0.992       .  S
C429        C430   1.404       .  A
C429        C434   1.411       .  A
C430        C431   1.399       .  A
C430        H435   1.084       .  S
C431        C432   1.413       .  A
C431        O436   1.372       .  S
C432        C433   1.408       .  A
C433        C434   1.408       .  A
C433        H437   1.083       .  S
C434        O438   1.372       .  S
O436        H440   0.992       .  S
O438        H439   0.992       .  S
C441        C442   1.405       .  A
C441        C446   1.402       .  A
C442        C443   1.403       .  A
C442        H447   1.084       .  S
C443        C444   1.412       .  A
C443        O448   1.372       .  S
C444        C445   1.411       .  A
C445        C446   1.400       .  A
C445        H449   1.083       .  S
C446        O450   1.371       .  S
O448        H452   0.992       .  S
O450        H451   0.991       .  S
C453        C454   1.398       .  A
C453        C458   1.408       .  A
C454        C455   1.402       .  A
C454        H459   1.084       .  S
C455        C456   1.418       .  A
C455        O460   1.372       .  S
C456        C457   1.404       .  A
C457        C458   1.398       .  A
C457        H461   1.083       .  S
C458        O462   1.372       .  S
O460        H464   0.992       .  S
O462        H463   0.991       .  S
C465        C466   1.406       .  A
C465        C470   1.410       .  A
C466        C467   1.396       .  A
C466        H471   1.084       .  S
C467        C468   1.402       .  A
C467        O472   1.372       .  S
C468        C469   1.402       .  A
C469        C470   1.401       .  A
C469        H473   1.084       .  S
C470        O474   1.371       .  S
O472        H476   0.992       .  S
O474        H475   0.992       .  S
C477        C478   1.410       .  A
C477        C482   1.405       .  A
C478        C479   1.396       .  A
C478        H483   1.083       .  S
C479        C480   1.406       .  A
C479       O1428   1.372   1_554  S
C480        C481   1.410       .  A
C481        C482   1.393       .  A
C481        H485   1.083       .  S
C482        O486   1.372       .  S
O484       C1423   1.372       .  S
O484        H488   0.992       .  S
O486        H487   0.992       .  S
C489        C490   1.409       .  A
C489        C494   1.412       .  A
C490        C491   1.413       .  A
C490        H495   1.083       .  S
C491        C492   1.413       .  A
C491        O496   1.371       .  S
C492        C493   1.405       .  A
C493        C494   1.402       .  A
C493        H497   1.084       .  S
C494        O498   1.372       .  S
O496        H500   0.992       .  S
O498        H499   0.992       .  S
C501        C502   1.401       .  A
C501        C506   1.416       .  A
C502        C503   1.402       .  A
C502        H507   1.084       .  S
C503        C504   1.418       .  A
C503        O508   1.372       .  S
C504        C505   1.403       .  A
C505        C506   1.399       .  A
C505        H509   1.083       .  S
C506        O510   1.372       .  S
O508        H512   0.992       .  S
O510        H511   0.992       .  S
C513        C514   1.405       .  A
C513        C518   1.413       .  A
C514        C515   1.394       .  A
C514        H519   1.083       .  S
C515        C516   1.412       .  A
C515        O520   1.372       .  S
C516        C517   1.406       .  A
C517        C518   1.397       .  A
C517        H521   1.083       .  S
C518        O522   1.372       .  S
O520        H524   0.992       .  S
O522        H523   0.992       .  S
C525        C526   1.412       .  A
C525        C530   1.402       .  A
C526        C527   1.397       .  A
C526        H531   1.084       .  S
C527        C528   1.402       .  A
C527        O532   1.371       .  S
C528        C529   1.414       .  A
C529        C530   1.400       .  A
C529        H533   1.084       .  S
C530        O534   1.371       .  S
O532        H536   0.992       .  S
O534        H535   0.992       .  S
C537        C538   1.410       .  A
C537        C542   1.407       .  A
C538        C539   1.394       .  A
C538        H543   1.083       .  S
C539        C540   1.404       .  A
C539        O544   1.372       .  S
C540        C541   1.410       .  A
C541        C542   1.398       .  A
C541        H545   1.084       .  S
C542        O546   1.372       .  S
O544        H548   0.992       .  S
O546        H547   0.992       .  S
C549        C550   1.413       .  A
C549        C554   1.406       .  A
C550        C551   1.402       .  A
C550        H555   1.083       .  S
C551        C552   1.407       .  A
C551        O556   1.371       .  S
C552        C553   1.412       .  A
C553        C554   1.398       .  A
C553        H557   1.083       .  S
C554        O558   1.371       .  S
O556        H560   0.992       .  S
O558        H559   0.992       .  S
C561        C562   1.403       .  A
C561        C566   1.412       .  A
C562        C563   1.398       .  A
C562        H567   1.084       .  S
C563        C564   1.412       .  A
C563        O568   1.372       .  S
C564        C565   1.407       .  A
C565        C566   1.408       .  A
C565        H569   1.083       .  S
C566        O570   1.371       .  S
O568        H572   0.992       .  S
O570        H571   0.992       .  S
C573        C574   1.408       .  A
C573        C578   1.407       .  A
C574        C575   1.402       .  A
C574        H579   1.084       .  S
C575        C576   1.411       .  A
C575        O580   1.371       .  S
C576        C577   1.414       .  A
C577        C578   1.407       .  A
C577        H581   1.083       .  S
C578        O582   1.371       .  S
O580        H584   0.992       .  S
O582        H583   0.992       .  S
C585        C586   1.405       .  A
C585        C590   1.403       .  A
C586        C587   1.402       .  A
C586        H591   1.084       .  S
C587        C588   1.412       .  A
C587        O592   1.372   1_565  S
C588        C589   1.410       .  A
C589        C590   1.402       .  A
C589        H593   1.083       .  S
C590        O594   1.371       .  S
O592        H596   0.992       .  S
O594        H595   0.992       .  S
C597        C598   1.408       .  A
C597        C602   1.417       .  A
C598        C599   1.398       .  A
C598        H603   1.083   1_565  S
C599        C600   1.404       .  A
C599        O604   1.372       .  S
C600        C601   1.400       .  A
C601        C602   1.403       .  A
C601        H605   1.084       .  S
C602        O606   1.372       .  S
O604        H608   0.992       .  S
O606        H607   0.992   1_565  S
C609        C610   1.409       .  A
C609        C614   1.409       .  A
C610        C611   1.394       .  A
C610        H615   1.083       .  S
C611        C612   1.407       .  A
C611       O1560   1.372       .  S
C612        C613   1.409       .  A
C613        C614   1.402       .  A
C613        H617   1.083       .  S
C614        O618   1.371       .  S
O616       C1555   1.372   1_554  S
O616        H620   0.992       .  S
O618        H619   0.992       .  S
C621        C622   1.402       .  A
C621        C626   1.419       .  A
C622        C623   1.399       .  A
C622        H627   1.083       .  S
C623        C624   1.415       .  A
C623        O628   1.373       .  S
C624        C625   1.399       .  A
C625        C626   1.399       .  A
C625        H629   1.084   1_554  S
C626        O630   1.372       .  S
O628        H632   0.992       .  S
O630        H631   0.992   1_554  S
C633        C634   1.411       .  A
C633        C638   1.411       .  A
C634        C635   1.402       .  A
C634        H639   1.083       .  S
C635        C636   1.408       .  A
C635        O640   1.372       .  S
C636        C637   1.408       .  A
C637        C638   1.401       .  A
C637        H641   1.084       .  S
C638        O642   1.372       .  S
O640        H644   0.992       .  S
O642        H643   0.992       .  S
C645        C646   1.408       .  A
C645        C650   1.415       .  A
C646        C647   1.407       .  A
C646        H651   1.083       .  S
C647        C648   1.410       .  A
C647        O652   1.371       .  S
C648        C649   1.403       .  A
C649        C650   1.400       .  A
C649        H653   1.084       .  S
C650        O654   1.372       .  S
O652        H656   0.991       .  S
O654        H655   0.992       .  S
C657        C658   1.405       .  A
C657        C662   1.416       .  A
C658        C659   1.403       .  A
C658        H663   1.083       .  S
C659        C660   1.411       .  A
C659       O1608   1.372       .  S
C660        C661   1.400       .  A
C661        C662   1.397       .  A
C661        H665   1.084       .  S
C662        O666   1.372       .  S
O664       C1603   1.372       .  S
O664        H668   0.992       .  S
O666        H667   0.992       .  S
C669        C670   1.402       .  A
C669        C674   1.406       .  A
C670        C671   1.402       .  A
C670        H675   1.084       .  S
C671        C672   1.416       .  A
C671        O676   1.372       .  S
C672        C673   1.410       .  A
C673        C674   1.404       .  A
C673        H677   1.083       .  S
C674        O678   1.372       .  S
O676        H680   0.992       .  S
O678        H679   0.992       .  S
C681        C682   1.406       .  A
C681        C686   1.404       .  A
C682        C683   1.397       .  A
C682        H687   1.084       .  S
C683        C684   1.408       .  A
C683        O688   1.372       .  S
C684        C685   1.410       .  A
C685        C686   1.405       .  A
C685        H689   1.083       .  S
C686        O690   1.371       .  S
O688        H692   0.992       .  S
O690        H691   0.991       .  S
C693        C694   1.400       .  A
C693        C698   1.417       .  A
C694        C695   1.401       .  A
C694        H699   1.083       .  S
C695        C696   1.420       .  A
C695        O700   1.372       .  S
C696        C697   1.402       .  A
C697        C698   1.399       .  A
C697        H701   1.083       .  S
C698        O702   1.372       .  S
O700        H704   0.992       .  S
O702        H703   0.992       .  S
C705        C706   1.413       .  A
C705        C710   1.409       .  A
C706        C707   1.400       .  A
C706        H711   1.083       .  S
C707        C708   1.406       .  A
C707        O712   1.372       .  S
C708        C709   1.411       .  A
C709        C710   1.404       .  A
C709        H713   1.083       .  S
C710        O714   1.371       .  S
O712        H716   0.992       .  S
O714        H715   0.992       .  S
C717        C718   1.406       .  A
C717        C722   1.412       .  A
C718        C719   1.407       .  A
C718        H723   1.083       .  S
C719        C720   1.412       .  A
C719        O724   1.371       .  S
C720        C721   1.406       .  A
C721        C722   1.401       .  A
C721        H725   1.084       .  S
C722        O726   1.372       .  S
O724        H728   0.992       .  S
O726        H727   0.992       .  S
C729        C730   1.413       .  A
C729        C734   1.411       .  A
C730        C731   1.407       .  A
C730        H735   1.083       .  S
C731        C732   1.410       .  A
C731        O736   1.371       .  S
C732        C733   1.413       .  A
C733        C734   1.406       .  A
C733        H737   1.083       .  S
C734        O738   1.371       .  S
O736        H740   0.992       .  S
O738        H739   0.992       .  S
C741        C742   1.403       .  A
C741        C746   1.417       .  A
C742        C743   1.404       .  A
C742        H747   1.083       .  S
C743        C744   1.419       .  A
C743        O748   1.371       .  S
C744        C745   1.403       .  A
C745        C746   1.401       .  A
C745        H749   1.083       .  S
C746        O750   1.372       .  S
O748        H752   0.992       .  S
O750        H751   0.992       .  S
C753        C754   1.404       .  A
C753        C758   1.404       .  A
C754        C755   1.406       .  A
C754        H759   1.084       .  S
C755        C756   1.410       .  A
C755        O760   1.371       .  S
C756        C757   1.408       .  A
C757        C758   1.397       .  A
C757        H761   1.084       .  S
C758        O762   1.372       .  S
O760        H764   0.992       .  S
O762        H763   0.992       .  S
C765        C766   1.406       .  A
C765        C770   1.412       .  A
C766        C767   1.395       .  A
C766        H771   1.083       .  S
C767        C768   1.411       .  A
C767        O772   1.372       .  S
C768        C769   1.406       .  A
C769        C770   1.397       .  A
C769        H773   1.083       .  S
C770        O774   1.372       .  S
O772        H776   0.992       .  S
O774        H775   0.992       .  S
C777        C778   1.396       .  A
C777        C782   1.417       .  A
C778        C779   1.399       .  A
C778        H783   1.084       .  S
C779        C780   1.417       .  A
C779        O784   1.372       .  S
C780        C781   1.397       .  A
C781        C782   1.401       .  A
C781        H785   1.084       .  S
C782        O786   1.372       .  S
O784        H788   0.992       .  S
O786        H787   0.992       .  S
C789        C790   1.394       .  A
C789        C794   1.411       .  A
C790        C791   1.391       .  A
C790        H795   1.084       .  S
C791        C792   1.416       .  A
C791        O796   1.372       .  S
C792        C793   1.401       .  A
C793        C794   1.400       .  A
C793        H797   1.083       .  S
C794        O798   1.372       .  S
O796        H800   0.992       .  S
O798        H799   0.992       .  S
C801        C802   1.412       .  A
C801        C806   1.407       .  A
C802        C803   1.399       .  A
C802        H807   1.083       .  S
C803        C804   1.405       .  A
C803        O808   1.371   1_554  S
C804        C805   1.409       .  A
C805        C806   1.395       .  A
C805        H809   1.084       .  S
C806        O810   1.372       .  S
O808        H812   0.992       .  S
O810        H811   0.992       .  S
C813        C814   1.403       .  A
C813        C818   1.420       .  A
C814        C815   1.399       .  A
C814        H819   1.083       .  S
C815        C816   1.416       .  A
C815       O1764   1.372       .  S
C816        C817   1.398       .  A
C817        C818   1.398       .  A
C817        H821   1.084   1_554  S
C818        O822   1.372       .  S
O820       C1759   1.372       .  S
O820        H824   0.992       .  S
O822        H823   0.992       .  S
C825        C826   1.402       .  A
C825        C830   1.416       .  A
C826        C827   1.402       .  A
C826        H831   1.084       .  S
C827        C828   1.419       .  A
C827        O832   1.372       .  S
C828        C829   1.404       .  A
C829        C830   1.404       .  A
C829        H833   1.083       .  S
C830        O834   1.372       .  S
O832        H836   0.992       .  S
O834        H835   0.992       .  S
C837        C838   1.411       .  A
C837        C842   1.410       .  A
C838        C839   1.404       .  A
C838        H843   1.083       .  S
C839        C840   1.411       .  A
C839        O844   1.372       .  S
C840        C841   1.409       .  A
C841        C842   1.400       .  A
C841        H845   1.083       .  S
C842        O846   1.371       .  S
O844        H848   0.992       .  S
O846        H847   0.992       .  S
C849        C850   1.411       .  A
C849        C854   1.407       .  A
C850        C851   1.402       .  A
C850        H855   1.084       .  S
C851        C852   1.405       .  A
C851        O856   1.372       .  S
C852        C853   1.407       .  A
C853        C854   1.401       .  A
C853        H857   1.084       .  S
C854        O858   1.371       .  S
O856        H860   0.992       .  S
O858        H859   0.992       .  S
C861        C862   1.403       .  A
C861        C866   1.412       .  A
C862        C863   1.403       .  A
C862        H867   1.084       .  S
C863        C864   1.415       .  A
C863        O868   1.372       .  S
C864        C865   1.410       .  A
C865        C866   1.414       .  A
C865        H869   1.083       .  S
C866        O870   1.371       .  S
O868        H872   0.992       .  S
O870        H871   0.992       .  S
C873        C874   1.404   1_455  A
C873        C878   1.415       .  A
C874        C875   1.398       .  A
C874        H879   1.083       .  S
C875        C876   1.414   1_545  A
C875        O880   1.371       .  S
C876        C877   1.403   1_655  A
C877        C878   1.395   1_565  A
C877        H881   1.084       .  S
C878        O882   1.373       .  S
O880        H884   0.992       .  S
O882        H883   0.992   1_545  S
C885        C886   1.397   1_655  A
C885        C890   1.414   1_545  A
C886       C1831   1.399       .  A
C886        H891   1.084       .  S
C887        C888   1.413   1_545  A
C887       C1830   1.399   1_554  A
C887        O892   1.370       .  S
C888        C889   1.399   1_455  A
C889       C1834   1.404   1_554  A
C889        H893   1.084       .  S
C890       C1833   1.404       .  A
C890        O894   1.372       .  S
O892        H896   0.992   1_545  S
O894        H895   0.992       .  S
C897        C898   1.395       .  A
C897        C902   1.410       .  A
C898        C899   1.398       .  A
C898        H903   1.084       .  S
C899        C900   1.418       .  A
C899        O904   1.372       .  S
C900        C901   1.400       .  A
C901        C902   1.394       .  A
C901        H905   1.084       .  S
C902        O906   1.372       .  S
O904        H908   0.992       .  S
O906        H907   0.992       .  S
C909        C910   1.402       .  A
C909        C914   1.412       .  A
C910        C911   1.400       .  A
C910        H915   1.084       .  S
C911        C912   1.415       .  A
C911        O916   1.372       .  S
C912        C913   1.401       .  A
C913        C914   1.396       .  A
C913        H917   1.084       .  S
C914        O918   1.372       .  S
O916        H920   0.992       .  S
O918        H919   0.992       .  S
C921        C922   1.399       .  A
C921        C926   1.418       .  A
C922        C923   1.402       .  A
C922        H927   1.084       .  S
C923        C924   1.421       .  A
C923        O928   1.372       .  S
C924        C925   1.402       .  A
C925        C926   1.402       .  A
C925        H929   1.083       .  S
C926        O930   1.372       .  S
O928        H932   0.992       .  S
O930        H931   0.992       .  S
C933        C934   1.393       .  A
C933        C938   1.408       .  A
C934        C935   1.394       .  A
C934        H939   1.084       .  S
C935        C936   1.417       .  A
C935        O940   1.373       .  S
C936        C937   1.398       .  A
C937        C938   1.392       .  A
C937        H941   1.084       .  S
C938        O942   1.371       .  S
O940        H944   0.992       .  S
O942        H943   0.992       .  S
Zn945       O949   1.908       .  S
Zn945       O950   1.958   1_455  S
Zn945       O954   1.917       .  S
Zn945       O961   1.947       .  S
Zn946       O949   1.953   1_655  S
Zn946       O951   1.976   1_545  S
Zn946       O953   2.032       .  S
Zn946       O957   2.018       .  S
Zn947       O949   1.979   1_665  S
Zn947       O952   2.103       .  S
Zn947       O955   2.043       .  S
Zn947       O958   2.075   1_655  S
Zn948       O949   1.937       .  S
Zn948       O956   1.968   1_545  S
Zn948       O959   1.973       .  S
Zn948       O960   2.011       .  S
O950        C962   1.265       .  A
O951        C963   1.269       .  A
O952        C964   1.283   1_655  A
O953        C962   1.275       .  A
O954        C964   1.260   1_545  A
O955        C963   1.279       .  A
O956        C965   1.267       .  A
O957        C966   1.275   1_655  A
O958        C965   1.281       .  A
O959        C966   1.269       .  A
O960        C967   1.270       .  A
O961        C967   1.264       .  A
C962       C1844   1.476       .  S
C963       C1856   1.479       .  S
C964       C1832   1.473       .  S
C965       C1868   1.494       .  S
C966       C1817   1.482       .  S
C967       C1877   1.455       .  S
Zn968       O972   1.993   1_545  S
Zn968       O973   2.097       .  S
Zn968       O977   2.102       .  S
Zn968       O984   2.071   1_455  S
Zn969       O972   1.954       .  S
Zn969       O974   2.053       .  S
Zn969       O976   2.002   1_565  S
Zn969       O980   1.993       .  S
Zn970       O972   1.926       .  S
Zn970       O975   1.923   1_455  S
Zn970       O978   1.983       .  S
Zn970       O981   1.987   1_455  S
Zn971       O972   1.959   1_655  S
Zn971       O979   2.054       .  S
Zn971       O982   2.001       .  S
Zn971       O983   1.985   1_565  S
O973        C985   1.282       .  A
O974        C986   1.276       .  A
O975        C987   1.262   1_565  A
O976        C985   1.271       .  A
O977        C987   1.285   1_455  A
O978        C986   1.268       .  A
O979        C988   1.276       .  A
O980        C989   1.274   1_455  A
O981        C988   1.269       .  A
O982        C989   1.273       .  A
O983        C990   1.269       .  A
O984        C990   1.281       .  A
C985       C1808   1.502       .  S
C986       C1796   1.479       .  S
C987       C1829   1.471       .  S
C988       C1784   1.493       .  S
C989       C1820   1.481       .  S
C990       C1772   1.496       .  S
Zn991       O995   1.893       .  S
Zn991       O996   1.936       .  S
Zn991      O1000   1.937       .  S
Zn991      O1007   1.915       .  S
Zn992       O995   1.943       .  S
Zn992       O997   1.996       .  S
Zn992       O999   2.027       .  S
Zn992      O1003   1.964       .  S
Zn993       O995   1.942       .  S
Zn993       O998   2.036       .  S
Zn993      O1001   1.988       .  S
Zn993      O1004   1.967       .  S
Zn994       O995   1.975       .  S
Zn994      O1002   2.042       .  S
Zn994      O1005   2.058       .  S
Zn994      O1006   2.093       .  S
O996       C1008   1.262       .  A
O998       C1010   1.273       .  A
O999       C1008   1.274       .  A
O1000      C1010   1.263       .  A
O1002      C1011   1.278       .  A
O1003      C1012   1.266       .  A
O1004      C1011   1.269       .  A
O1005      C1012   1.279       .  A
O1006      C1013   1.282       .  A
O1007      C1013   1.260       .  A
C1008      C1880   1.468       .  S
C1009      C1709   1.481       .  S
C1010      C1736   1.472       .  S
C1011      C1745   1.483       .  S
C1012      C1757   1.488       .  S
C1013      C1724   1.474       .  S
Zn1014     O1018   1.961       .  S
Zn1014     O1019   2.056       .  S
Zn1014     O1023   2.004       .  S
Zn1014     O1030   2.002       .  S
Zn1015     O1018   1.928       .  S
Zn1015     O1020   1.923       .  S
Zn1015     O1022   1.971       .  S
Zn1015     O1026   1.976       .  S
Zn1016     O1018   1.989       .  S
Zn1016     O1021   2.093       .  S
Zn1016     O1024   2.102       .  S
Zn1016     O1027   2.076       .  S
Zn1017     O1018   1.961       .  S
Zn1017     O1025   2.011       .  S
Zn1017     O1028   2.069       .  S
Zn1017     O1029   1.995       .  S
O1019      C1031   1.275       .  A
O1020      C1032   1.263       .  A
O1021      C1033   1.282       .  A
O1022      C1031   1.265       .  A
O1023      C1033   1.271       .  A
O1024      C1032   1.286       .  A
O1025      C1034   1.273       .  A
O1026      C1035   1.266       .  A
O1027      C1034   1.281       .  A
O1028      C1035   1.278       .  A
O1029      C1036   1.274       .  A
O1030      C1036   1.275       .  A
C1031      C1697   1.471       .  S
C1032      C1721   1.474       .  S
C1033      C1805   1.494       .  S
C1034      C1673   1.502       .  S
C1035      C1685   1.493       .  S
C1036      C1712   1.481       .  S
Zn1037     O1041   1.914       .  S
Zn1037     O1042   1.957       .  S
Zn1037     O1046   1.959       .  S
Zn1037     O1053   1.935       .  S
Zn1038     O1041   1.964       .  S
Zn1038     O1043   2.033       .  S
Zn1038     O1045   2.084       .  S
Zn1038     O1049   2.003       .  S
Zn1039     O1041   1.963       .  S
Zn1039     O1044   2.068       .  S
Zn1039     O1047   2.014       .  S
Zn1039     O1050   1.998       .  S
Zn1040     O1041   1.980       .  S
Zn1040     O1048   2.052       .  S
Zn1040     O1051   2.065       .  S
Zn1040     O1052   2.091       .  S
O1042      C1054   1.264       .  A
O1043      C1055   1.277       .  A
O1044      C1056   1.279       .  A
O1045      C1054   1.281       .  A
O1046      C1056   1.265       .  A
O1047      C1055   1.275       .  A
O1048      C1057   1.279       .  A
O1049      C1058   1.273       .  A
O1050      C1057   1.271       .  A
O1051      C1058   1.280       .  A
O1052      C1059   1.282       .  A
O1053      C1059   1.264       .  A
C1054      C1865   1.489       .  S
C1055      C1616   1.495       .  S
C1056      C1637   1.486       .  S
C1057      C1652   1.488       .  S
C1058      C1661   1.489       .  S
C1059      C1625   1.473       .  S
Zn1060     O1064   1.925       .  S
Zn1060     O1065   1.937       .  S
Zn1060     O1069   1.986       .  S
Zn1060     O1076   1.979       .  S
Zn1061     O1064   1.989       .  S
Zn1061     O1066   2.056       .  S
Zn1061     O1068   2.096       .  S
Zn1061     O1072   2.068       .  S
Zn1062     O1064   1.953       .  S
Zn1062     O1067   2.049       .  S
Zn1062     O1070   1.975       .  S
Zn1062     O1073   2.003       .  S
Zn1063     O1064   1.959       .  S
Zn1063     O1071   2.026       .  S
Zn1063     O1074   1.998       .  S
Zn1063     O1075   2.057       .  S
O1065      C1077   1.263       .  A
O1066      C1078   1.279       .  A
O1067      C1079   1.276       .  A
O1068      C1077   1.282       .  A
O1069      C1079   1.268       .  A
O1070      C1078   1.269       .  A
O1072      C1081   1.280       .  A
O1074      C1081   1.272       .  A
O1075      C1082   1.279       .  A
O1076      C1082   1.269       .  A
C1077      C1613   1.470       .  S
C1078      C1601   1.487       .  S
C1079      C1793   1.485       .  S
C1080      C1628   1.482       .  S
C1081      C1589   1.492       .  S
C1082      C1580   1.486       .  S
Zn1083     O1088   1.949       .  S
Zn1083     O1092   1.956       .  S
Zn1083     O1099   1.952       .  S
Zn1084     O1089   2.034       .  S
Zn1084     O1091   2.070       .  S
Zn1084     O1095   2.016       .  S
Zn1085     O1087   1.955       .  S
Zn1085     O1090   2.054       .  S
Zn1085     O1093   2.005   1_545  S
Zn1085     O1096   2.019       .  S
Zn1086     O1087   1.960       .  S
Zn1086     O1094   2.018       .  S
Zn1086     O1097   1.999   1_545  S
Zn1086     O1098   2.059       .  S
O1088      C1100   1.264   1_545  A
O1091      C1100   1.278       .  A
O1092      C1102   1.265       .  A
O1093      C1101   1.273       .  A
O1094      C1103   1.275       .  A
O1096      C1103   1.274       .  A
O1097      C1104   1.271       .  A
O1099      C1105   1.265       .  A
C1100      C1544   1.466       .  S
C1101      C1604   1.478       .  S
C1102      C1760   1.480       .  S
C1103      C1532   1.488   1_545  S
C1104      C1556   1.481       .  S
C1105      C1568   1.480       .  S
Zn1106     O1110   1.920   1_545  S
Zn1106     O1111   1.936       .  S
Zn1106     O1115   1.961       .  S
Zn1106     O1122   1.975       .  S
Zn1107     O1110   1.988       .  S
Zn1107     O1112   2.059       .  S
Zn1107     O1114   2.092       .  S
Zn1107     O1118   2.061       .  S
Zn1108     O1110   1.966   1_545  S
Zn1108     O1113   2.067       .  S
Zn1108     O1116   2.005   1_545  S
Zn1108     O1119   2.017       .  S
Zn1109     O1110   1.966   1_545  S
Zn1109     O1117   2.021       .  S
Zn1109     O1120   1.997   1_545  S
Zn1109     O1121   2.080       .  S
O1111      C1123   1.264   1_545  A
O1112      C1124   1.278       .  A
O1113      C1125   1.278       .  A
O1114      C1123   1.282       .  A
O1115      C1125   1.265       .  A
O1116      C1124   1.272       .  A
O1117      C1126   1.276       .  A
O1118      C1127   1.279       .  A
O1119      C1126   1.277       .  A
O1120      C1127   1.272       .  A
O1121      C1128   1.279       .  A
O1122      C1128   1.267       .  A
C1123      C1529   1.469       .  S
C1124      C1664   1.491       .  S
C1125      C1700   1.482       .  S
C1126      C1541   1.491   1_545  S
C1127      C1505   1.486       .  S
C1128      C1517   1.490       .  S
Zn1129     O1133   1.906       .  S
Zn1129     O1134   1.948       .  S
Zn1129     O1138   1.953       .  S
Zn1129     O1145   1.927       .  S
Zn1130     O1133   1.953       .  S
Zn1130     O1135   1.990       .  S
Zn1130     O1137   2.035       .  S
Zn1130     O1141   1.976       .  S
Zn1131     O1133   1.940       .  S
Zn1131     O1136   2.048       .  S
Zn1131     O1139   1.995       .  S
Zn1131     O1142   1.988       .  S
Zn1132     O1133   1.975       .  S
Zn1132     O1140   2.066       .  S
Zn1132     O1143   2.056       .  S
Zn1132     O1144   2.082       .  S
O1134      C1146   1.264       .  A
O1135      C1147   1.272       .  A
O1136      C1148   1.275       .  A
O1137      C1146   1.274       .  A
O1138      C1148   1.264       .  A
O1139      C1147   1.274       .  A
O1140      C1149   1.279       .  A
O1141      C1150   1.268       .  A
O1142      C1149   1.271       .  A
O1143      C1150   1.279       .  A
O1144      C1151   1.283       .  A
O1145      C1151   1.263       .  A
C1146      C1481   1.480       .  S
C1147      C1457   1.480       .  S
C1148      C1853   1.476       .  S
C1149      C1508   1.487       .  S
C1150      C1493   1.489       .  S
C1151      C1472   1.478       .  S
Zn1152     O1156   1.912       .  S
Zn1152     O1157   1.962       .  S
Zn1152     O1161   1.960       .  S
Zn1153     O1156   1.955       .  S
Zn1153     O1158   2.003       .  S
Zn1153     O1160   2.061       .  S
Zn1153     O1164   2.008       .  S
Zn1154     O1156   1.959       .  S
Zn1154     O1159   2.046       .  S
Zn1154     O1162   1.985       .  S
Zn1154     O1165   1.994       .  S
Zn1155     O1156   1.982       .  S
Zn1155     O1163   2.051       .  S
Zn1155     O1166   2.079       .  S
Zn1155     O1167   2.087       .  S
O1157      C1169   1.265       .  A
O1158      C1170   1.275       .  A
O1159      C1171   1.274       .  A
O1160      C1169   1.278       .  A
O1161      C1171   1.265       .  A
O1162      C1170   1.272       .  A
O1163      C1172   1.278       .  A
O1164      C1173   1.273       .  A
O1165      C1172   1.271       .  A
O1166      C1173   1.281       .  A
O1168      C1174   1.263       .  A
C1169      C1445   1.485       .  S
C1170      C1460   1.479       .  S
C1171      C1553   1.486       .  S
C1172      C1781   1.493       .  S
C1173      C1433   1.497       .  S
C1174      C1469   1.476       .  S
Zn1175     O1179   1.974       .  S
Zn1175     O1180   2.042       .  S
Zn1175     O1184   2.016       .  S
Zn1175     O1191   2.074       .  S
Zn1176     O1179   1.947       .  S
Zn1176     O1181   1.995       .  S
Zn1176     O1183   1.971       .  S
Zn1176     O1187   2.035       .  S
Zn1177     O1179   1.952       .  S
Zn1177     O1182   1.966       .  S
Zn1177     O1185   2.032       .  S
Zn1177     O1188   2.041       .  S
Zn1178     O1179   1.907       .  S
Zn1178     O1186   1.972       .  S
Zn1178     O1189   1.942       .  S
Zn1178     O1190   1.934       .  S
O1180      C1192   1.278       .  A
O1182      C1194   1.268       .  A
O1183      C1192   1.267       .  A
O1184      C1194   1.275       .  A
O1186      C1195   1.266       .  A
O1187      C1196   1.274       .  A
O1188      C1195   1.276       .  A
O1189      C1196   1.264       .  A
O1190      C1197   1.262       .  A
O1191      C1197   1.278       .  A
C1192      C1565   1.486       .  S
C1193      C1388   1.490       .  S
C1194      C1421   1.475       .  S
C1195      C1412   1.463       .  S
C1196      C1841   1.462       .  S
C1197      C1397   1.466       .  S
Zn1198     O1202   1.964       .  S
Zn1198     O1203   2.019       .  S
Zn1198     O1207   2.008       .  S
Zn1198     O1214   2.062       .  S
Zn1199     O1202   1.959       .  S
Zn1199     O1204   1.993       .  S
Zn1199     O1206   2.003       .  S
Zn1199     O1210   2.060       .  S
Zn1200     O1202   1.983       .  S
Zn1200     O1205   2.059       .  S
Zn1200     O1208   2.064       .  S
Zn1200     O1211   2.087       .  S
Zn1201     O1202   1.925       .  S
Zn1201     O1209   1.940       .  S
Zn1201     O1212   1.975       .  S
Zn1201     O1213   1.991       .  S
O1203      C1215   1.276       .  A
O1204      C1216   1.271       .  A
O1205      C1217   1.279       .  A
O1206      C1215   1.273       .  A
O1207      C1217   1.272       .  A
O1208      C1216   1.279       .  A
O1209      C1218   1.264       .  A
O1210      C1219   1.277       .  A
O1211      C1218   1.282       .  A
O1212      C1219   1.267       .  A
O1213      C1220   1.269       .  A
O1214      C1220   1.280       .  A
C1215      C1400   1.486       .  S
C1216      C1373   1.485       .  S
C1217      C1520   1.498       .  S
C1218      C1385   1.468       .  S
C1219      C1361   1.484       .  S
C1220      C1769   1.491       .  S
Zn1221     O1226   1.981       .  S
Zn1221     O1230   1.992       .  S
Zn1221     O1237   2.032       .  S
Zn1222     O1225   1.978       .  S
Zn1222     O1227   2.063       .  S
Zn1222     O1229   2.057       .  S
Zn1222     O1233   2.098       .  S
Zn1223     O1228   2.001       .  S
Zn1223     O1231   1.991       .  S
Zn1223     O1234   2.052       .  S
Zn1224     O1225   1.901       .  S
Zn1224     O1232   1.938       .  S
Zn1224     O1235   1.912       .  S
Zn1224     O1236   1.937       .  S
O1226      C1238   1.269       .  A
O1228      C1240   1.274       .  A
O1230      C1240   1.272       .  A
O1231      C1239   1.272       .  A
O1232      C1241   1.262       .  A
O1233      C1242   1.284       .  A
O1235      C1242   1.260       .  A
O1236      C1243   1.263       .  A
C1238      C1448   1.489       .  S
C1239      C1592   1.483       .  S
C1240      C1337   1.480       .  S
C1241      C1748   1.480       .  S
C1242      C1349   1.475       .  S
C1243      C1424   1.477       .  S
Zn1244     O1248   1.958       .  S
Zn1244     O1249   2.002       .  S
Zn1244     O1253   1.999       .  S
Zn1244     O1260   2.068       .  S
Zn1245     O1248   1.956       .  S
Zn1245     O1250   2.005       .  S
Zn1245     O1252   2.008       .  S
Zn1245     O1256   2.065       .  S
Zn1246     O1248   1.982       .  S
Zn1246     O1251   2.058       .  S
Zn1246     O1254   2.059       .  S
Zn1246     O1257   2.085       .  S
Zn1247     O1248   1.912       .  S
Zn1247     O1255   1.917       .  S
Zn1247     O1258   1.956       .  S
Zn1247     O1259   1.966       .  S
O1249      C1261   1.275       .  A
O1250      C1262   1.272       .  A
O1251      C1263   1.280       .  A
O1252      C1261   1.276       .  A
O1253      C1263   1.271       .  A
O1254      C1262   1.278       .  A
O1255      C1264   1.261       .  A
O1256      C1265   1.278       .  A
O1257      C1264   1.283       .  A
O1258      C1265   1.265       .  A
O1259      C1266   1.266       .  A
O1260      C1266   1.278       .  A
C1261      C1340   1.482       .  S
C1262      C1376   1.490       .  S
C1263      C1688   1.495       .  S
C1264      C1352   1.472       .  S
C1265      C1496   1.489       .  S
C1266      C1649   1.493       .  S
Zn1267     O1271   1.909       .  S
Zn1267     O1272   1.967   1_655  S
Zn1267     O1276   1.949       .  S
Zn1267     O1283   1.974       .  S
Zn1268     O1271   1.946   1_455  S
Zn1268     O1273   1.978       .  S
Zn1268     O1275   2.021       .  S
Zn1268     O1279   2.013       .  S
Zn1269     O1271   1.964       .  S
Zn1269     O1274   2.082       .  S
Zn1269     O1277   2.049   1_655  S
Zn1269     O1280   2.034       .  S
Zn1270     O1271   1.943       .  S
Zn1270     O1278   1.965       .  S
Zn1270     O1281   2.001       .  S
Zn1270     O1282   2.034       .  S
O1272      C1284   1.267       .  A
O1273      C1285   1.268       .  A
O1274      C1286   1.280       .  A
O1275      C1284   1.275       .  A
O1276      C1286   1.265       .  A
O1277      C1285   1.278       .  A
O1278      C1287   1.269       .  A
O1279      C1288   1.273       .  A
O1280      C1287   1.278       .  A
O1281      C1288   1.272   1_655  A
O1282      C1289   1.275       .  A
O1283      C1289   1.268       .  A
C1284      C1733   1.463       .  S
C1285      C1640   1.489       .  S
C1286      C1325   1.471       .  S
C1287      C1484   1.477       .  S
C1288      C1313   1.488       .  S
C1289      C1409   1.474       .  S
Zn1290     O1294   1.988       .  S
Zn1290     O1295   2.043       .  S
Zn1290     O1299   2.081   1_455  S
Zn1290     O1306   2.084       .  S
Zn1291     O1294   1.969       .  S
Zn1291     O1296   2.036       .  S
Zn1291     O1298   2.003       .  S
Zn1291     O1302   2.088       .  S
Zn1292     O1294   1.956   1_655  S
Zn1292     O1297   2.006       .  S
Zn1292     O1300   2.000       .  S
Zn1292     O1303   2.053       .  S
Zn1293     O1294   1.930       .  S
Zn1293     O1301   1.985   1_455  S
Zn1293     O1304   1.991       .  S
Zn1293     O1305   1.932       .  S
O1295      C1307   1.278       .  A
O1296      C1308   1.278   1_455  A
O1297      C1309   1.272       .  A
O1298      C1307   1.273       .  A
O1299      C1309   1.280       .  A
O1300      C1308   1.274       .  A
O1301      C1310   1.268       .  A
O1302      C1311   1.281       .  A
O1303      C1310   1.277       .  A
O1304      C1311   1.269       .  A
O1305      C1312   1.263       .  A
O1306      C1312   1.282       .  A
C1307      C1577   1.492       .  S
C1308      C1328   1.488       .  S
C1309      C1436   1.495       .  S
C1310      C1364   1.482       .  S
C1311      C1676   1.502       .  S
C1312      C1316   1.464       .  S
C1313      C1314   1.409   1_455  A
C1313      C1318   1.414       .  A
C1314      C1315   1.399       .  A
C1314      H1319   1.083       .  S
C1315      C1316   1.403   1_655  A
C1315      O1320   1.372       .  S
C1316      C1317   1.403       .  A
C1317      C1318   1.402       .  A
C1317      H1321   1.084       .  S
C1318      O1322   1.372       .  S
O1320      H1324   0.991       .  S
O1322      H1323   0.992       .  S
C1325      C1326   1.402       .  A
C1325      C1330   1.406   1_655  A
C1326      H1331   1.084       .  S
C1327      C1328   1.413       .  A
C1327      O1332   1.372       .  S
C1328      C1329   1.410   1_655  A
C1329      H1333   1.083       .  S
C1330      O1334   1.371       .  S
O1332      H1336   0.992       .  S
O1334      H1335   0.991       .  S
C1337      C1338   1.405       .  A
C1337      C1342   1.412       .  A
C1338      C1339   1.395       .  A
C1338      H1343   1.083       .  S
C1339      C1340   1.411       .  A
C1339      O1344   1.371       .  S
C1340      C1341   1.407       .  A
C1341      C1342   1.398       .  A
C1341      H1345   1.083       .  S
C1342      O1346   1.372       .  S
O1344      H1348   0.992       .  S
O1346      H1347   0.992       .  S
C1349      C1350   1.397       .  A
C1349      C1354   1.418       .  A
C1350      C1351   1.400       .  A
C1350      H1355   1.084       .  S
C1351      C1352   1.417       .  A
C1351      O1356   1.372       .  S
C1352      C1353   1.395       .  A
C1353      C1354   1.398       .  A
C1353      H1357   1.084       .  S
C1354      O1358   1.372       .  S
O1356      H1360   0.992       .  S
O1358      H1359   0.992       .  S
C1361      C1362   1.410       .  A
C1361      C1366   1.406       .  A
C1362      C1363   1.400       .  A
C1362      H1367   1.084       .  S
C1363      C1364   1.405       .  A
C1363      O1368   1.371       .  S
C1364      C1365   1.410       .  A
C1365      C1366   1.404       .  A
C1365      H1369   1.084       .  S
C1366      O1370   1.371       .  S
O1368      H1372   0.992       .  S
O1370      H1371   0.992       .  S
C1373      C1374   1.404       .  A
C1373      C1378   1.411       .  A
C1374      C1375   1.399       .  A
C1374      H1379   1.084       .  S
C1375      C1376   1.413       .  A
C1375      O1380   1.372       .  S
C1376      C1377   1.408       .  A
C1377      C1378   1.408       .  A
C1377      H1381   1.083       .  S
C1378      O1382   1.372       .  S
O1380      H1384   0.992       .  S
O1382      H1383   0.992       .  S
C1385      C1386   1.405       .  A
C1385      C1390   1.402       .  A
C1386      C1387   1.403       .  A
C1386      H1391   1.084       .  S
C1387      C1388   1.412       .  A
C1387      O1392   1.372       .  S
C1388      C1389   1.411       .  A
C1389      C1390   1.400       .  A
C1389      H1393   1.083       .  S
C1390      O1394   1.371       .  S
O1392      H1396   0.992       .  S
O1394      H1395   0.991       .  S
C1397      C1398   1.398       .  A
C1397      C1402   1.408       .  A
C1398      C1399   1.402       .  A
C1398      H1403   1.084       .  S
C1399      C1400   1.418       .  A
C1399      O1404   1.372       .  S
C1400      C1401   1.404       .  A
C1401      C1402   1.398       .  A
C1401      H1405   1.083       .  S
C1402      O1406   1.372       .  S
O1404      H1408   0.992       .  S
O1406      H1407   0.991       .  S
C1409      C1410   1.406       .  A
C1409      C1414   1.410       .  A
C1410      C1411   1.396       .  A
C1410      H1415   1.084       .  S
C1411      C1412   1.402       .  A
C1411      O1416   1.372       .  S
C1412      C1413   1.402       .  A
C1413      C1414   1.401       .  A
C1413      H1417   1.084       .  S
C1414      O1418   1.371       .  S
O1416      H1420   0.992       .  S
O1418      H1419   0.992       .  S
C1421      C1422   1.410       .  A
C1421      C1426   1.405       .  A
C1422      C1423   1.396       .  A
C1422      H1427   1.083       .  S
C1423      C1424   1.406       .  A
C1424      C1425   1.410       .  A
C1425      C1426   1.393       .  A
C1425      H1429   1.083       .  S
C1426      O1430   1.372       .  S
O1428      H1432   0.992   1_556  S
O1430      H1431   0.992       .  S
C1433      C1434   1.409       .  A
C1433      C1438   1.412       .  A
C1434      C1435   1.413       .  A
C1434      H1439   1.083       .  S
C1435      C1436   1.413       .  A
C1435      O1440   1.371       .  S
C1436      C1437   1.405       .  A
C1437      C1438   1.402       .  A
C1437      H1441   1.084       .  S
C1438      O1442   1.372       .  S
O1440      H1444   0.992       .  S
O1442      H1443   0.992       .  S
C1445      C1446   1.401       .  A
C1445      C1450   1.416       .  A
C1446      C1447   1.402       .  A
C1446      H1451   1.084       .  S
C1447      C1448   1.418       .  A
C1447      O1452   1.372       .  S
C1448      C1449   1.403       .  A
C1449      C1450   1.399       .  A
C1449      H1453   1.083       .  S
C1450      O1454   1.372       .  S
O1452      H1456   0.992       .  S
O1454      H1455   0.992       .  S
C1457      C1458   1.405       .  A
C1457      C1462   1.413       .  A
C1458      C1459   1.394       .  A
C1458      H1463   1.083       .  S
C1459      C1460   1.412       .  A
C1459      O1464   1.372       .  S
C1460      C1461   1.406       .  A
C1461      C1462   1.397       .  A
C1461      H1465   1.083       .  S
C1462      O1466   1.372       .  S
O1464      H1468   0.992       .  S
O1466      H1467   0.992       .  S
C1469      C1470   1.412       .  A
C1469      C1474   1.402       .  A
C1470      C1471   1.397       .  A
C1470      H1475   1.084       .  S
C1471      C1472   1.402       .  A
C1471      O1476   1.371       .  S
C1472      C1473   1.414       .  A
C1473      C1474   1.400       .  A
C1473      H1477   1.084       .  S
C1474      O1478   1.371       .  S
O1476      H1480   0.992       .  S
O1478      H1479   0.992       .  S
C1481      C1482   1.410       .  A
C1481      C1486   1.407       .  A
C1482      C1483   1.394       .  A
C1482      H1487   1.083       .  S
C1483      C1484   1.404       .  A
C1483      O1488   1.372       .  S
C1484      C1485   1.410       .  A
C1485      C1486   1.398       .  A
C1485      H1489   1.084       .  S
C1486      O1490   1.372       .  S
O1488      H1492   0.992       .  S
O1490      H1491   0.992       .  S
C1493      C1494   1.413       .  A
C1493      C1498   1.406       .  A
C1494      C1495   1.402       .  A
C1494      H1499   1.083       .  S
C1495      C1496   1.407       .  A
C1495      O1500   1.371       .  S
C1496      C1497   1.412       .  A
C1497      C1498   1.398       .  A
C1497      H1501   1.083       .  S
C1498      O1502   1.371       .  S
O1500      H1504   0.992       .  S
O1502      H1503   0.992       .  S
C1505      C1506   1.403       .  A
C1505      C1510   1.412       .  A
C1506      C1507   1.398       .  A
C1506      H1511   1.084       .  S
C1507      C1508   1.412       .  A
C1507      O1512   1.372       .  S
C1508      C1509   1.407       .  A
C1509      C1510   1.408       .  A
C1509      H1513   1.083       .  S
C1510      O1514   1.371       .  S
O1512      H1516   0.992       .  S
O1514      H1515   0.992       .  S
C1517      C1518   1.408       .  A
C1517      C1522   1.407       .  A
C1518      C1519   1.402       .  A
C1518      H1523   1.084       .  S
C1519      C1520   1.411       .  A
C1519      O1524   1.371       .  S
C1520      C1521   1.414       .  A
C1521      C1522   1.407       .  A
C1521      H1525   1.083       .  S
C1522      O1526   1.371       .  S
O1524      H1528   0.992       .  S
O1526      H1527   0.992       .  S
C1529      C1530   1.405       .  A
C1529      C1534   1.403       .  A
C1530      C1531   1.402       .  A
C1530      H1535   1.084       .  S
C1531      C1532   1.412       .  A
C1531      O1536   1.372   1_565  S
C1532      C1533   1.410       .  A
C1533      C1534   1.402       .  A
C1533      H1537   1.083       .  S
C1534      O1538   1.371       .  S
O1536      H1540   0.992       .  S
O1538      H1539   0.992       .  S
C1541      C1542   1.408       .  A
C1541      C1546   1.417       .  A
C1542      C1543   1.398       .  A
C1542      H1547   1.083   1_565  S
C1543      C1544   1.404       .  A
C1543      O1548   1.372       .  S
C1544      C1545   1.400       .  A
C1545      C1546   1.403       .  A
C1545      H1549   1.084       .  S
C1546      O1550   1.372       .  S
O1548      H1552   0.992       .  S
O1550      H1551   0.992   1_565  S
C1553      C1554   1.409       .  A
C1553      C1558   1.409       .  A
C1554      C1555   1.394       .  A
C1554      H1559   1.083       .  S
C1555      C1556   1.407       .  A
C1556      C1557   1.409       .  A
C1557      C1558   1.402       .  A
C1557      H1561   1.083       .  S
C1558      O1562   1.371       .  S
O1560      H1564   0.992       .  S
O1562      H1563   0.992       .  S
C1565      C1566   1.402       .  A
C1565      C1570   1.419       .  A
C1566      C1567   1.399       .  A
C1566      H1571   1.083       .  S
C1567      C1568   1.415       .  A
C1567      O1572   1.373       .  S
C1568      C1569   1.399       .  A
C1569      C1570   1.399       .  A
C1569      H1573   1.084       .  S
C1570      O1574   1.372       .  S
O1572      H1576   0.992       .  S
O1574      H1575   0.992       .  S
C1577      C1578   1.411       .  A
C1577      C1582   1.411       .  A
C1578      C1579   1.402       .  A
C1578      H1583   1.083       .  S
C1579      C1580   1.408       .  A
C1579      O1584   1.372       .  S
C1580      C1581   1.408       .  A
C1581      C1582   1.401       .  A
C1581      H1585   1.084       .  S
C1582      O1586   1.372       .  S
O1584      H1588   0.992       .  S
O1586      H1587   0.992       .  S
C1589      C1590   1.408       .  A
C1589      C1594   1.415       .  A
C1590      C1591   1.407       .  A
C1590      H1595   1.083       .  S
C1591      C1592   1.410       .  A
C1591      O1596   1.371       .  S
C1592      C1593   1.403       .  A
C1593      C1594   1.400       .  A
C1593      H1597   1.084       .  S
C1594      O1598   1.372       .  S
O1596      H1600   0.991       .  S
O1598      H1599   0.992       .  S
C1601      C1602   1.405       .  A
C1601      C1606   1.416       .  A
C1602      C1603   1.403       .  A
C1602      H1607   1.083       .  S
C1603      C1604   1.411       .  A
C1604      C1605   1.400       .  A
C1605      C1606   1.397       .  A
C1605      H1609   1.084       .  S
C1606      O1610   1.372       .  S
O1608      H1612   0.992       .  S
O1610      H1611   0.992       .  S
C1613      C1614   1.402       .  A
C1613      C1618   1.406       .  A
C1614      C1615   1.402       .  A
C1614      H1619   1.084       .  S
C1615      C1616   1.416       .  A
C1615      O1620   1.372       .  S
C1616      C1617   1.410       .  A
C1617      C1618   1.404       .  A
C1617      H1621   1.083       .  S
C1618      O1622   1.372       .  S
O1620      H1624   0.992       .  S
O1622      H1623   0.992       .  S
C1625      C1626   1.405       .  A
C1625      C1630   1.404       .  A
C1626      C1627   1.397       .  A
C1626      H1631   1.084       .  S
C1627      C1628   1.408       .  A
C1627      O1632   1.372       .  S
C1628      C1629   1.410       .  A
C1629      C1630   1.405       .  A
C1629      H1633   1.083       .  S
C1630      O1634   1.371       .  S
O1632      H1636   0.992       .  S
O1634      H1635   0.991       .  S
C1637      C1638   1.400       .  A
C1637      C1642   1.417       .  A
C1638      C1639   1.401       .  A
C1638      H1643   1.083       .  S
C1639      C1640   1.420       .  A
C1639      O1644   1.372       .  S
C1640      C1641   1.402       .  A
C1641      C1642   1.399       .  A
C1641      H1645   1.083       .  S
C1642      O1646   1.372       .  S
O1644      H1648   0.992       .  S
O1646      H1647   0.992       .  S
C1649      C1650   1.413       .  A
C1649      C1654   1.409       .  A
C1650      C1651   1.400       .  A
C1650      H1655   1.083       .  S
C1651      C1652   1.406       .  A
C1651      O1656   1.372       .  S
C1652      C1653   1.411       .  A
C1653      C1654   1.404       .  A
C1653      H1657   1.083       .  S
C1654      O1658   1.371       .  S
O1656      H1660   0.992       .  S
O1658      H1659   0.992       .  S
C1661      C1662   1.406       .  A
C1661      C1666   1.412       .  A
C1662      C1663   1.407       .  A
C1662      H1667   1.083       .  S
C1663      C1664   1.412       .  A
C1663      O1668   1.371       .  S
C1664      C1665   1.406       .  A
C1665      C1666   1.401       .  A
C1665      H1669   1.084       .  S
C1666      O1670   1.372       .  S
O1668      H1672   0.992       .  S
O1670      H1671   0.992       .  S
C1673      C1674   1.413       .  A
C1673      C1678   1.411       .  A
C1674      C1675   1.406       .  A
C1674      H1679   1.083       .  S
C1675      C1676   1.410       .  A
C1675      O1680   1.371       .  S
C1676      C1677   1.413       .  A
C1677      C1678   1.406       .  A
C1677      H1681   1.083       .  S
C1678      O1682   1.371       .  S
O1680      H1684   0.992       .  S
O1682      H1683   0.992       .  S
C1685      C1686   1.403       .  A
C1685      C1690   1.417       .  A
C1686      C1687   1.404       .  A
C1686      H1691   1.083       .  S
C1687      C1688   1.419       .  A
C1687      O1692   1.371       .  S
C1688      C1689   1.403       .  A
C1689      C1690   1.401       .  A
C1689      H1693   1.083       .  S
C1690      O1694   1.372       .  S
O1692      H1696   0.992       .  S
O1694      H1695   0.992       .  S
C1697      C1698   1.404       .  A
C1697      C1702   1.404       .  A
C1698      C1699   1.406       .  A
C1698      H1703   1.084       .  S
C1699      C1700   1.410       .  A
C1699      O1704   1.371       .  S
C1700      C1701   1.408       .  A
C1701      C1702   1.397       .  A
C1701      H1705   1.084       .  S
C1702      O1706   1.372       .  S
O1704      H1708   0.992       .  S
O1706      H1707   0.992       .  S
C1709      C1710   1.406       .  A
C1709      C1714   1.412       .  A
C1710      C1711   1.395       .  A
C1710      H1715   1.083       .  S
C1711      C1712   1.411       .  A
C1711      O1716   1.372       .  S
C1712      C1713   1.406       .  A
C1713      C1714   1.397       .  A
C1713      H1717   1.083       .  S
C1714      O1718   1.372       .  S
O1716      H1720   0.992       .  S
O1718      H1719   0.992       .  S
C1721      C1722   1.396       .  A
C1721      C1726   1.417       .  A
C1722      C1723   1.399       .  A
C1722      H1727   1.084       .  S
C1723      C1724   1.417       .  A
C1723      O1728   1.372       .  S
C1724      C1725   1.397       .  A
C1725      C1726   1.400       .  A
C1725      H1729   1.084       .  S
C1726      O1730   1.372       .  S
O1728      H1732   0.992       .  S
O1730      H1731   0.992       .  S
C1733      C1734   1.394       .  A
C1733      C1738   1.411       .  A
C1734      C1735   1.391       .  A
C1734      H1739   1.084       .  S
C1735      C1736   1.416       .  A
C1735      O1740   1.372       .  S
C1736      C1737   1.401       .  A
C1737      C1738   1.400       .  A
C1737      H1741   1.083       .  S
C1738      O1742   1.372       .  S
O1740      H1744   0.992       .  S
O1742      H1743   0.992       .  S
C1745      C1746   1.412       .  A
C1745      C1750   1.407       .  A
C1746      C1747   1.399       .  A
C1746      H1751   1.083       .  S
C1747      C1748   1.406       .  A
C1747      O1752   1.371       .  S
C1748      C1749   1.409       .  A
C1749      C1750   1.395       .  A
C1749      H1753   1.084       .  S
C1750      O1754   1.372       .  S
O1752      H1756   0.992       .  S
O1754      H1755   0.992       .  S
C1757      C1758   1.403       .  A
C1757      C1762   1.420       .  A
C1758      C1759   1.399       .  A
C1758      H1763   1.083       .  S
C1759      C1760   1.416       .  A
C1760      C1761   1.398       .  A
C1761      C1762   1.398       .  A
C1761      H1765   1.084       .  S
C1762      O1766   1.372       .  S
O1764      H1768   0.992       .  S
O1766      H1767   0.992       .  S
C1769      C1770   1.402       .  A
C1769      C1774   1.416       .  A
C1770      C1771   1.402       .  A
C1770      H1775   1.084       .  S
C1771      C1772   1.419       .  A
C1771      O1776   1.372       .  S
C1772      C1773   1.404       .  A
C1773      C1774   1.404       .  A
C1773      H1777   1.083       .  S
C1774      O1778   1.372       .  S
O1776      H1780   0.992       .  S
O1778      H1779   0.992       .  S
C1781      C1782   1.411       .  A
C1781      C1786   1.410       .  A
C1782      C1783   1.404       .  A
C1782      H1787   1.083       .  S
C1783      C1784   1.411       .  A
C1783      O1788   1.372       .  S
C1784      C1785   1.409       .  A
C1785      C1786   1.400       .  A
C1785      H1789   1.083       .  S
C1786      O1790   1.371       .  S
O1788      H1792   0.992       .  S
O1790      H1791   0.992       .  S
C1793      C1794   1.411       .  A
C1793      C1798   1.407       .  A
C1794      C1795   1.402       .  A
C1794      H1799   1.084       .  S
C1795      C1796   1.405       .  A
C1795      O1800   1.372       .  S
C1796      C1797   1.407       .  A
C1797      C1798   1.401       .  A
C1797      H1801   1.084       .  S
C1798      O1802   1.371       .  S
O1800      H1804   0.992       .  S
O1802      H1803   0.992       .  S
C1805      C1806   1.403       .  A
C1805      C1810   1.412       .  A
C1806      C1807   1.403       .  A
C1806      H1811   1.084       .  S
C1807      C1808   1.415       .  A
C1807      O1812   1.372       .  S
C1808      C1809   1.410       .  A
C1809      C1810   1.414       .  A
C1809      H1813   1.083       .  S
C1810      O1814   1.371       .  S
O1812      H1816   0.992       .  S
O1814      H1815   0.992       .  S
C1817      C1818   1.404   1_455  A
C1817      C1822   1.415       .  A
C1818      C1819   1.398       .  A
C1818      H1823   1.083       .  S
C1819      C1820   1.414   1_545  A
C1819      O1824   1.371       .  S
C1820      C1821   1.403   1_655  A
C1821      C1822   1.395   1_565  A
C1821      H1825   1.084       .  S
C1822      O1826   1.373       .  S
O1824      H1828   0.992       .  S
O1826      H1827   0.992   1_545  S
C1829      C1830   1.397   1_655  A
C1829      C1834   1.414   1_545  A
C1830      H1835   1.084       .  S
C1831      C1832   1.413   1_545  A
C1831      O1836   1.370       .  S
C1832      C1833   1.399   1_455  A
C1833      H1837   1.084       .  S
C1834      O1838   1.372       .  S
O1836      H1840   0.992   1_545  S
O1838      H1839   0.992       .  S
C1841      C1842   1.395       .  A
C1841      C1846   1.410       .  A
C1842      C1843   1.398       .  A
C1842      H1847   1.084       .  S
C1843      C1844   1.419       .  A
C1843      O1848   1.372       .  S
C1844      C1845   1.400       .  A
C1845      C1846   1.394       .  A
C1845      H1849   1.084       .  S
C1846      O1850   1.372       .  S
O1848      H1852   0.992       .  S
O1850      H1851   0.992       .  S
C1853      C1854   1.402       .  A
C1853      C1858   1.412       .  A
C1854      C1855   1.400       .  A
C1854      H1859   1.084       .  S
C1855      C1856   1.415       .  A
C1855      O1860   1.372       .  S
C1856      C1857   1.401       .  A
C1857      C1858   1.396       .  A
C1857      H1861   1.084       .  S
C1858      O1862   1.372       .  S
O1860      H1864   0.992       .  S
O1862      H1863   0.992       .  S
C1865      C1866   1.399       .  A
C1865      C1870   1.418       .  A
C1866      C1867   1.402       .  A
C1866      H1871   1.084       .  S
C1867      C1868   1.421       .  A
C1867      O1872   1.372       .  S
C1868      C1869   1.402       .  A
C1869      C1870   1.402       .  A
C1869      H1873   1.083       .  S
C1870      O1874   1.372       .  S
O1872      H1876   0.992       .  S
O1874      H1875   0.992       .  S
C1877      C1878   1.393       .  A
C1877      C1882   1.408       .  A
C1878      C1879   1.394       .  A
C1878      H1883   1.084       .  S
C1879      C1880   1.417       .  A
C1879      O1884   1.373       .  S
C1880      C1881   1.398       .  A
C1881      C1882   1.392       .  A
C1881      H1885   1.084       .  S
C1882      O1886   1.371       .  S
O1884      H1888   0.992       .  S
O1886      H1887   0.992       .  S
