geometry optimzed in LAMMPS
_audit_creation_date              2020-11-30 
_audit_creation_method            'lammps2cif' 
_symmetry_space_group_name_H-M    'P1' 
_symmetry_Int_Tables_number       1 
_symmetry_cell_setting            triclinic 
loop_ 
_symmetry_equiv_pos_as_xyz 
  x,y,z 
_cell_length_a                    26.638166539750397 
_cell_length_b                    26.541098360847627 
_cell_length_c                    22.195926655451313 
_cell_angle_alpha                 89.90687619907247 
_cell_angle_beta                  89.81126730169626 
_cell_angle_gamma                 89.18330561684392 
loop_ 
_atom_site_label 
_atom_site_type_symbol 
_atom_site_fract_x 
_atom_site_fract_y 
_atom_site_fract_z 
_atom_site_charge 
O1          O  0.55112303  0.24118206  0.05888675    -0.69880
O2          O  0.44673006  0.23544419  0.94138503    -0.70090
O3          O  0.54843836  0.24081136  0.93834614    -0.69950
O4          O  0.44907925  0.23578729  0.06246299    -0.69960
O5          O  0.44477811  0.31769132  0.06226682    -0.69920
O6          O  0.54162897  0.32242655  0.93792671    -0.69940
O7          O  0.44208862  0.31731024  0.94166115    -0.69880
O8          O  0.54473396  0.32281867  0.05728452    -0.70070
V9          V  0.49860129  0.23970508  0.00040588     1.35240
V10         V  0.49327719  0.31828315  0.99997370     1.35170
C11         C  0.56734442  0.28357964  0.07538180     0.79360
C12         C  0.42723428  0.27583186  0.92123303     0.79420
C13         C  0.56236248  0.28286816  0.91763278     0.79290
C14         C  0.42987624  0.27618092  0.08286675     0.79250
O15         O  0.17487499  0.61541337  0.05889455    -0.69880
O16         O  0.17352289  0.51103029  0.94056999    -0.70090
O17         O  0.17639840  0.51318045  0.06147908    -0.69950
O18         O  0.17198202  0.61336526  0.93798038    -0.69960
O19         O  0.25361938  0.61334532  0.93570823    -0.69920
O20         O  0.25786188  0.51328424  0.05692592    -0.69940
O21         O  0.25500775  0.51299094  0.93633016    -0.69880
O22         O  0.25644368  0.61362476  0.05648585    -0.70070
V23         V  0.17564422  0.56324717  0.99959873     1.35240
V24         V  0.25401055  0.56330494  0.99641733     1.35170
C25         C  0.21622247  0.63190271  0.07805152     0.79360
C26         C  0.21434808  0.49442044  0.91840670     0.79420
C27         C  0.21820507  0.49615097  0.08003798     0.79290
C28         C  0.21231100  0.63062099  0.91650640     0.79250
O29         O  0.54746633  0.88824314  0.93945326    -0.69880
O30         O  0.44487620  0.88630934  0.05915821    -0.70090
O31         O  0.54670896  0.88988139  0.06030373    -0.69950
O32         O  0.44576895  0.88426452  0.93831137    -0.69960
O33         O  0.45017496  0.80253659  0.94153503    -0.69920
O34         O  0.55024515  0.80801846  0.06112712    -0.69940
O35         O  0.45042737  0.80452443  0.06226276    -0.69880
O36         O  0.55020215  0.80629520  0.94047619    -0.70070
V37         V  0.49626914  0.88570888  0.99935276     1.35240
V38         V  0.50018138  0.80706342  0.00127370     1.35170
C39         C  0.56627848  0.84742988  0.91994521     0.79360
C40         C  0.43025170  0.84494351  0.08086913     0.79420
C41         C  0.56563084  0.84946187  0.08121183     0.79290
C42         C  0.43072899  0.84206360  0.91944693     0.79250
O43         O  0.83288869  0.51758947  0.06446469    -0.69880
O44         O  0.82260985  0.61568716  0.93943994    -0.70090
O45         O  0.82685744  0.61958837  0.05996960    -0.69950
O46         O  0.82822106  0.51386502  0.94367645    -0.69960
O47         O  0.74673836  0.51128781  0.94879129    -0.69920
O48         O  0.74548401  0.61523030  0.06489530    -0.69940
O49         O  0.74129958  0.61169208  0.94429227    -0.69880
O50         O  0.75144601  0.51517461  0.06938098    -0.70070
V51         V  0.82616581  0.56661488  0.00200226     1.35240
V52         V  0.74793323  0.56340957  0.00670454     1.35170
C53         C  0.79368757  0.49968221  0.08803299     0.79360
C54         C  0.78006347  0.63049869  0.92082310     0.79420
C55         C  0.78563531  0.63530360  0.08193831     0.79290
C56         C  0.78741216  0.49469621  0.92676362     0.79250
O57         O  0.32884388  0.11095156  0.43765926    -0.69880
O58         O  0.32705999  0.01161073  0.56240059    -0.70090
O59         O  0.32757319  0.00847399  0.44146299    -0.69950
O60         O  0.32852093  0.11363610  0.55859343    -0.69960
O61         O  0.24696327  0.11223102  0.56140593    -0.69920
O62         O  0.24613049  0.01429345  0.43776952    -0.69940
O63         O  0.24558304  0.01226787  0.55835718    -0.69880
O64         O  0.24725952  0.11503793  0.44093288    -0.70070
V65         V  0.32658926  0.06119211  0.49985665     1.35240
V66         V  0.24819675  0.06338150  0.49950257     1.35170
C67         C  0.28807155  0.13082741  0.41970167     0.79360
C68         C  0.28555487  0.99503308  0.58136451     0.79420
C69         C  0.28644854  0.99358668  0.41991859     0.79290
C70         C  0.28758374  0.13008866  0.58055261     0.79250
O71         O  0.94714412  0.73935573  0.43974521    -0.69880
O72         O  0.05019549  0.74033139  0.55855834    -0.70090
O73         O  0.94817279  0.73915837  0.56051707    -0.69950
O74         O  0.04899131  0.74081795  0.43773598    -0.69960
O75         O  0.04418268  0.82257741  0.43634194    -0.69920
O76         O  0.94889282  0.82100494  0.56238762    -0.69940
O77         O  0.04925860  0.82226608  0.55648555    -0.69880
O78         O  0.94418566  0.82126887  0.44188091    -0.70070
V79         V  0.99858483  0.74137787  0.49918423     1.35240
V80         V  0.99660583  0.82007062  0.49934106     1.35170
C81         C  0.92790983  0.78034541  0.42123918     0.79360
C82         C  0.06799922  0.78161222  0.57641245     0.79420
C83         C  0.93143932  0.78019471  0.58217840     0.79290
C84         C  0.06364734  0.78234413  0.41623246     0.79250
O85         O  0.67950047  0.01938093  0.43960327    -0.69880
O86         O  0.67984468  0.11814951  0.56451837    -0.70090
O87         O  0.68247524  0.12136997  0.44320917    -0.69950
O88         O  0.67684527  0.01609171  0.56040364    -0.69960
O89         O  0.75841878  0.01456175  0.56416560    -0.69920
O90         O  0.76390611  0.11557027  0.44424112    -0.69940
O91         O  0.76134076  0.11472744  0.56480976    -0.70040
O92         O  0.76096686  0.01551504  0.44351596    -0.70070
V93         V  0.68109758  0.06873772  0.50202992     1.35240
V94         V  0.75942771  0.06520719  0.50417215     1.35170
C95         C  0.72051668  0.00057280  0.42063104     0.79360
C96         C  0.72103949  0.13325724  0.58574333     0.79420
C97         C  0.72447316  0.13570868  0.42315639     0.79290
C98         C  0.71695096  0.99753453  0.58199065     0.79250
O99         O  0.94769778  0.39005007  0.56338107    -0.69880
O100        O  0.04813991  0.38563991  0.44034564    -0.70090
O101        O  0.94655988  0.38923485  0.44223976    -0.69950
O102        O  0.04957955  0.38633933  0.56142876    -0.69960
O103        O  0.04457995  0.30473271  0.56498864    -0.69920
O104        O  0.94811288  0.30730486  0.44092601    -0.69940
O105        O  0.04770974  0.30388974  0.44441087    -0.69880
O106        O  0.94447314  0.30822178  0.56157687    -0.70070
V107        V  0.99795810  0.38638515  0.50198667     1.35240
V108        V  0.99625933  0.30775378  0.50304061     1.35170
C109        C  0.92846590  0.34967050  0.58234650     0.79360
C110        C  0.06504524  0.34367601  0.42158537     0.79420
C111        C  0.93067774  0.34836691  0.42065432     0.79290
C112        C  0.06438306  0.34472425  0.58350229     0.79250
C113        C  0.26005033  0.32421237  0.22785037     0.02470
C114        C  0.23788662  0.30248070  0.27620681     0.02470
C115        C  0.75095138  0.32138965  0.21291767     0.02470
C116        C  0.76906282  0.29950942  0.26485632     0.02470
C117        C  0.73875985  0.32646295  0.78031161     0.02470
C118        C  0.75986305  0.30537248  0.73059619     0.02470
C119        C  0.73759966  0.80754259  0.22524957     0.02470
C120        C  0.75919570  0.82823511  0.27430271     0.02470
C121        C  0.73540694  0.80165265  0.77267422     0.02470
C122        C  0.75809902  0.82370476  0.72494250     0.02470
C123        C  0.25982446  0.80120895  0.22657609     0.02470
C124        C  0.23778908  0.82372375  0.27483243     0.02470
C125        C  0.25994333  0.79983260  0.77170242     0.02470
C126        C  0.24038682  0.82238409  0.72190348     0.02470
C127        C  0.25845555  0.32162005  0.77452469     0.02470
C128        C  0.23660148  0.29883840  0.72706610     0.02470
C129        C  0.14929046  0.36891820  0.62072875     0.25500
C130        C  0.10495959  0.34147022  0.62831406    -0.22610
C131        C  0.10219901  0.30555367  0.67469407     0.20410
C132        C  0.14397483  0.29498153  0.71051207     0.25440
C133        C  0.18974224  0.31891228  0.69932087    -0.22550
C134        C  0.19167403  0.35725453  0.65561416     0.20340
F135        F  0.23532754  0.38126559  0.64427013    -0.12510
F136        F  0.15291712  0.40387864  0.57626308    -0.14870
F137        F  0.13999341  0.26004289  0.75478511    -0.14880
F138        F  0.05939665  0.27938524  0.68397080    -0.12510
C139        C  0.14845302  0.28798507  0.30105945     0.25500
C140        C  0.18926700  0.32081215  0.30156022    -0.22610
C141        C  0.18573659  0.36568219  0.33505182     0.20410
C142        C  0.14347620  0.37534094  0.37143119     0.25440
C143        C  0.10468109  0.33993738  0.37497745    -0.22550
C144        C  0.10662884  0.29736163  0.33737680     0.20340
F145        F  0.06878101  0.26359405  0.33752903    -0.12510
F146        F  0.15036240  0.24513302  0.26775070    -0.14870
F147        F  0.14248018  0.41704470  0.40676725    -0.14880
F148        F  0.22481529  0.39791550  0.33646795    -0.12510
C149        C  0.84459617  0.36845045  0.38271437     0.25500
C150        C  0.89241668  0.34700789  0.37327390    -0.22610
C151        C  0.90114251  0.31687374  0.32234236     0.20410
C152        C  0.86175170  0.30514529  0.28381739     0.25440
C153        C  0.81260313  0.32153226  0.29725207    -0.22550
C154        C  0.80459283  0.35492436  0.34560887     0.20340
F155        F  0.75773662  0.37254739  0.35852264    -0.12510
F156        F  0.83584026  0.39938222  0.43027875    -0.14870
F157        F  0.87140498  0.27590361  0.23501853    -0.14880
F158        F  0.94761668  0.29721322  0.31129539    -0.12510
C159        C  0.89333244  0.33653999  0.68547757     0.25500
C160        C  0.88617582  0.34996933  0.62486397    -0.22610
C161        C  0.83734565  0.35515970  0.60230073     0.20410
C162        C  0.79611249  0.34449439  0.63876212     0.25440
C163        C  0.80303892  0.32818969  0.69845055    -0.22550
C164        C  0.85189674  0.32593686  0.72232486     0.20340
F165        F  0.85970778  0.30975897  0.77959498    -0.12510
F166        F  0.94047015  0.33087178  0.70778534    -0.14870
F167        F  0.74939068  0.34711516  0.61460615    -0.14880
F168        F  0.82973855  0.36661470  0.54347624    -0.12510
C169        C  0.76530082  0.17321808  0.67122196     0.25500
C170        C  0.72355357  0.17254299  0.63262272    -0.22610
C171        C  0.68847443  0.21270425  0.63474596     0.20410
C172        C  0.69778790  0.25501481  0.67064959     0.25440
C173        C  0.74200622  0.25723259  0.70493344    -0.22550
C174        C  0.77437652  0.21513891  0.70694328     0.20340
F175        F  0.81649310  0.21577186  0.74119481    -0.12510
F176        F  0.79873792  0.13409787  0.67238708    -0.14870
F177        F  0.66579198  0.29521903  0.66828219    -0.14880
F178        F  0.64754885  0.21293144  0.59845951    -0.12510
C179        C  0.76630830  0.16942035  0.33189339     0.25500
C180        C  0.72871750  0.17471790  0.37601632    -0.22610
C181        C  0.69895103  0.21894276  0.37712121     0.20410
C182        C  0.70948715  0.25884698  0.33758435     0.25440
C183        C  0.74926614  0.25449454  0.29592968    -0.22550
C184        C  0.77625591  0.20869345  0.29209639     0.20340
F185        F  0.81255703  0.20194204  0.24984083    -0.12510
F186        F  0.79422619  0.12630320  0.32802795    -0.14870
F187        F  0.68239517  0.30240667  0.34165421    -0.14880
F188        F  0.66218956  0.22490493  0.41911233    -0.12510
C189        C  0.76220976  0.96100626  0.33214975     0.25500
C190        C  0.72248269  0.96123025  0.37391628    -0.22610
C191        C  0.68937008  0.92043838  0.37526923     0.20410
C192        C  0.69882324  0.87798912  0.33919555     0.25440
C193        C  0.74093681  0.87643054  0.30082943    -0.22550
C194        C  0.77107874  0.91916404  0.29563038     0.20340
F195        F  0.81085162  0.91943609  0.25732102    -0.12510
F196        F  0.79384923  0.00059845  0.32852052    -0.14870
F197        F  0.66912771  0.83715078  0.34503192    -0.14880
F198        F  0.65064059  0.91977007  0.41515127    -0.12510
C199        C  0.74947075  0.91779450  0.71695951     0.25500
C200        C  0.73689002  0.86972067  0.69589159    -0.22610
C201        C  0.71035573  0.86538012  0.64156171     0.20410
C202        C  0.69964446  0.90814564  0.60672357     0.25440
C203        C  0.71656984  0.95550419  0.62507960    -0.22550
C204        C  0.74041697  0.96031989  0.68105051     0.20340
F205        F  0.75679112  0.00594345  0.69961597    -0.12510
F206        F  0.77290396  0.92328146  0.77067345    -0.14870
F207        F  0.67674343  0.90271452  0.55260689    -0.14880
F208        F  0.69724113  0.81938526  0.62069189    -0.12510
C209        C  0.14586351  0.75244571  0.37259686     0.25500
C210        C  0.10395459  0.78529522  0.37061315    -0.22610
C211        C  0.10393696  0.82582168  0.32975187     0.20410
C212        C  0.14637249  0.83570820  0.29503976     0.25440
C213        C  0.18985155  0.80563861  0.30084624    -0.22550
C214        C  0.18875372  0.76279685  0.33815354     0.20340
F215        F  0.23026898  0.73305639  0.34440108    -0.12510
F216        F  0.14696080  0.71292238  0.41149085    -0.14870
F217        F  0.14561068  0.87610560  0.25754893    -0.14880
F218        F  0.06340522  0.85722804  0.32518510    -0.12510
C219        C  0.10607741  0.79139300  0.67842339     0.25500
C220        C  0.11180252  0.78304089  0.61636377    -0.22610
C221        C  0.15997587  0.78252264  0.59084863     0.20410
C222        C  0.20194870  0.79163604  0.62653987     0.25440
C223        C  0.19649339  0.80215982  0.68840649    -0.22550
C224        C  0.14812085  0.80118588  0.71428063     0.20340
F225        F  0.14102867  0.81349962  0.77298563    -0.12510
F226        F  0.05955088  0.79261934  0.70356740    -0.14870
F227        F  0.24787228  0.79264826  0.59992044    -0.14880
F228        F  0.16606198  0.77612554  0.53054650    -0.12510
C229        C  0.89266354  0.81925491  0.67274093     0.25500
C230        C  0.89125857  0.78200804  0.62798354    -0.22610
C231        C  0.84807080  0.75247082  0.62233201     0.20410
C232        C  0.80529716  0.76340784  0.65731700     0.25440
C233        C  0.80560210  0.80359840  0.69849328    -0.22550
C234        C  0.85033292  0.82980587  0.70778688     0.20340
F235        F  0.85255852  0.86722440  0.74915160    -0.12510
F236        F  0.93453577  0.84706738  0.68070853    -0.14870
F237        F  0.76268244  0.73708667  0.64817865    -0.14880
F238        F  0.84577411  0.71610613  0.57954234    -0.12510
C239        C  0.85213365  0.81233378  0.28332231     0.25500
C240        C  0.80315177  0.80440558  0.30475354    -0.22610
C241        C  0.79638276  0.78111260  0.36106304     0.20410
C242        C  0.83777417  0.76933525  0.39731275     0.25440
C243        C  0.88633677  0.78134869  0.37799493    -0.22550
C244        C  0.89347158  0.80154441  0.32017879     0.20340
F245        F  0.94031810  0.81305109  0.30072887    -0.12510
F246        F  0.85981414  0.83364073  0.22853700    -0.14870
F247        F  0.83016318  0.75003160  0.45322321    -0.14880
F248        F  0.74946694  0.77246019  0.38237572    -0.12510
C249        C  0.27519942  0.26453558  0.36848533     0.25500
C250        C  0.26108792  0.25864819  0.30803783    -0.22610
C251        C  0.26251036  0.21020190  0.28223235     0.20410
C252        C  0.27546294  0.16813479  0.31753786     0.25440
C253        C  0.28698872  0.17417525  0.37871777    -0.22550
C254        C  0.28759060  0.22263132  0.40355881     0.20340
F255        F  0.29614681  0.22900725  0.46317407    -0.12510
F256        F  0.27407544  0.31075341  0.39462451    -0.14870
F257        F  0.27362796  0.12131597  0.29319624    -0.14880
F258        F  0.24764431  0.20315470  0.22450624    -0.12510
C259        C  0.25503424  0.16388061  0.67740266     0.25500
C260        C  0.28574227  0.16997063  0.62649064    -0.22610
C261        C  0.30773968  0.21689822  0.61560646     0.20410
C262        C  0.29366913  0.25874867  0.65048058     0.25440
C263        C  0.25949443  0.25342333  0.69839237    -0.22550
C264        C  0.24297479  0.20509251  0.71396874     0.20340
F265        F  0.21363087  0.19793489  0.76313944    -0.12510
F266        F  0.23536734  0.11819792  0.69046261    -0.14870
F267        F  0.31129530  0.30485517  0.63555126    -0.14880
F268        F  0.33985852  0.22303425  0.56872291    -0.12510
C269        C  0.22926288  0.91354950  0.70121171     0.25500
C270        C  0.26031564  0.87053828  0.69835194    -0.22610
C271        C  0.30523284  0.87213627  0.66492890     0.20410
C272        C  0.31621423  0.91472780  0.62997541     0.25440
C273        C  0.28220021  0.95577137  0.62824168    -0.22550
C274        C  0.24012098  0.95582169  0.66664229     0.20340
F275        F  0.20794514  0.99597403  0.66832855    -0.12510
F276        F  0.18657477  0.91339628  0.73481511    -0.14870
F277        F  0.35747966  0.91392963  0.59391826    -0.14880
F278        F  0.33601331  0.83100850  0.66198356    -0.12510
C279        C  0.26260679  0.95854461  0.32019450     0.25500
C280        C  0.28436827  0.95144013  0.37713112    -0.22610
C281        C  0.29697740  0.90249548  0.39641900     0.20410
C282        C  0.28466904  0.86091202  0.36095840     0.25440
C283        C  0.26043562  0.86780025  0.30531892    -0.22550
C284        C  0.25146353  0.91702712  0.28402859     0.20340
F285        F  0.22920427  0.92490218  0.22990410    -0.12510
F286        F  0.25029257  0.00564800  0.30079699    -0.14870
F287        F  0.29399377  0.81376847  0.38233839    -0.14880
F288        F  0.31735421  0.89478833  0.45173565    -0.12510
C289        C  0.76085918  0.45984502  0.18124394     0.25500
C290        C  0.79587696  0.45944051  0.13372188    -0.22610
C291        C  0.82502378  0.41575197  0.12306351     0.20410
C292        C  0.81396875  0.37097217  0.15351897     0.25440
C293        C  0.77460114  0.37010233  0.19586747    -0.22550
C294        C  0.75075511  0.41553399  0.21278932     0.20340
F295        F  0.71274403  0.41540862  0.25367708    -0.12510
F296        F  0.73308919  0.50198695  0.19319364    -0.14870
F297        F  0.83705278  0.32744020  0.13619287    -0.14880
F298        F  0.85948374  0.41467050  0.07787456    -0.12510
C299        C  0.74605958  0.71367319  0.21535076     0.25500
C300        C  0.75925253  0.76204039  0.19565427    -0.22610
C301        C  0.78773465  0.76723169  0.14263300     0.20410
C302        C  0.80023017  0.72494853  0.10786523     0.25440
C303        C  0.78314531  0.67723966  0.12490883    -0.22550
C304        C  0.75696897  0.67164285  0.17947804     0.20340
F305        F  0.74042656  0.62565986  0.19681572    -0.12510
F306        F  0.72060325  0.70736638  0.26779032    -0.14870
F307        F  0.82523790  0.73115513  0.05502430    -0.14880
F308        F  0.80136801  0.81353295  0.12303537    -0.12510
C309        C  0.72347729  0.71113863  0.79806660     0.25500
C310        C  0.75409472  0.75376125  0.79984947    -0.22610
C311        C  0.79739143  0.75271546  0.83590776     0.20410
C312        C  0.80802990  0.71086831  0.87251396     0.25440
C313        C  0.77492809  0.67002387  0.87431633    -0.22550
C314        C  0.73355294  0.66982245  0.83523023     0.20340
F315        F  0.70184191  0.63020216  0.83439871    -0.12510
F316        F  0.68234367  0.71037477  0.76223347    -0.14870
F317        F  0.84830561  0.71216866  0.90977485    -0.14880
F318        F  0.82721169  0.79362239  0.83923596    -0.12510
C319        C  0.76913827  0.46020567  0.82508585     0.25500
C320        C  0.78623246  0.45253973  0.88422796    -0.22610
C321        C  0.79372461  0.40335713  0.90575287     0.20410
C322        C  0.78127764  0.36222083  0.86991923     0.25440
C323        C  0.76163678  0.36972241  0.81185316    -0.22550
C324        C  0.75747917  0.41892526  0.78869276     0.20340
F325        F  0.73890318  0.42708380  0.73259849    -0.12510
F326        F  0.76120163  0.50767181  0.80392158    -0.14870
F327        F  0.78604076  0.31499832  0.89299148    -0.14880
F328        F  0.80940158  0.39529604  0.96314189    -0.12510
C329        C  0.69138734  0.86724092  0.15587354     0.25500
C330        C  0.69041124  0.82810812  0.19866257    -0.22610
C331        C  0.64524013  0.80290876  0.20924286     0.20410
C332        C  0.60325713  0.81297846  0.17366197     0.25440
C333        C  0.60538372  0.84891177  0.12727748    -0.22550
C334        C  0.64889422  0.87781547  0.12047112     0.20340
F335        F  0.65174723  0.91307566  0.07628782    -0.12510
F336        F  0.73431333  0.89290247  0.14577152    -0.14870
F337        F  0.56104450  0.78579564  0.18259675    -0.14880
F338        F  0.64235119  0.76664747  0.25215658    -0.12510
C339        C  0.39489981  0.81555382  0.17857807     0.25500
C340        C  0.38903780  0.84296761  0.12484107    -0.22610
C341        C  0.34169934  0.86303265  0.10981036     0.20410
C342        C  0.29986081  0.85199854  0.14537135     0.25440
C343        C  0.30517664  0.82219957  0.19741517    -0.22550
C344        C  0.35335427  0.80627390  0.21546146     0.20340
F345        F  0.35987194  0.77979150  0.26723404    -0.12510
F346        F  0.44059913  0.79646289  0.19423046    -0.14870
F347        F  0.25375133  0.86807608  0.12719802    -0.14880
F348        F  0.33526831  0.88957688  0.05798648    -0.12510
C349        C  0.39107707  0.79576749  0.83499110     0.25500
C350        C  0.39071075  0.83762714  0.87376395    -0.22610
C351        C  0.34941599  0.87133474  0.87245673     0.20410
C352        C  0.30764372  0.86108284  0.83624281     0.25440
C353        C  0.30697973  0.81734256  0.80054414    -0.22550
C354        C  0.34975621  0.78586453  0.79872497     0.20340
F355        F  0.35089130  0.74428057  0.76324455    -0.12510
F356        F  0.43102784  0.76339687  0.83347979    -0.14870
F357        F  0.26672202  0.89205664  0.83893616    -0.14880
F358        F  0.34784997  0.91200708  0.90944902    -0.12510
C359        C  0.64248827  0.81738741  0.78138619     0.25500
C360        C  0.69127686  0.82512279  0.80308060    -0.22610
C361        C  0.69773847  0.84759905  0.85973480     0.20410
C362        C  0.65618222  0.85879938  0.89607030     0.25440
C363        C  0.60778570  0.84698608  0.87649310    -0.22550
C364        C  0.60092344  0.82755464  0.81839090     0.20340
F365        F  0.55420077  0.81615101  0.79884015    -0.12510
F366        F  0.63529299  0.79667197  0.72630040    -0.14870
F367        F  0.66347124  0.87714041  0.95237653    -0.14880
F368        F  0.74452974  0.85574649  0.88136634    -0.12510
C369        C  0.25520011  0.66778150  0.16956347     0.25500
C370        C  0.21885291  0.67181304  0.12409135    -0.22610
C371        C  0.18989831  0.71637737  0.11935493     0.20410
C372        C  0.20049955  0.75788143  0.15612348     0.25440
C373        C  0.23961475  0.75488670  0.19846136    -0.22550
C374        C  0.26514329  0.70874106  0.20673354     0.20340
F375        F  0.30123864  0.70376023  0.24931909    -0.12510
F376        F  0.28236526  0.62448587  0.17665920    -0.14870
F377        F  0.17473473  0.80182279  0.14789202    -0.14880
F378        F  0.15423538  0.72111065  0.07611063    -0.12510
C379        C  0.27280748  0.41436286  0.20260070     0.25500
C380        C  0.24158666  0.37222044  0.20072391    -0.22610
C381        C  0.19805822  0.37409657  0.16505517     0.20410
C382        C  0.18807524  0.41621826  0.12840237     0.25440
C383        C  0.22191177  0.45648863  0.12663350    -0.22550
C384        C  0.26323621  0.45594054  0.16581047     0.20340
F385        F  0.29556223  0.49505769  0.16691515    -0.12510
F386        F  0.31411793  0.41435678  0.23819767    -0.14870
F387        F  0.14774301  0.41577317  0.09119382    -0.14880
F388        F  0.16732361  0.33381498  0.16240967    -0.12510
C389        C  0.25874908  0.41514437  0.78815725     0.25500
C390        C  0.23739637  0.36842796  0.80198820    -0.22610
C391        C  0.20170230  0.36567237  0.84865602     0.20410
C392        C  0.19071753  0.40815208  0.88410813     0.25440
C393        C  0.21593957  0.45351410  0.87367049    -0.22550
C394        C  0.24864904  0.45712775  0.82419536     0.20340
F395        F  0.27242499  0.50097992  0.81223765    -0.12510
F396        F  0.29110547  0.41982525  0.74130911    -0.14870
F397        F  0.15893145  0.40374570  0.93170399    -0.14880
F398        F  0.17978611  0.32118853  0.86211545    -0.12510
C399        C  0.23246643  0.66521347  0.81494070     0.25500
C400        C  0.21233459  0.67223601  0.87295784    -0.22610
C401        C  0.20095163  0.72106836  0.89317200     0.20410
C402        C  0.21338643  0.76265934  0.85788052     0.25440
C403        C  0.23609710  0.75595080  0.80115944    -0.22550
C404        C  0.24339516  0.70693015  0.77863697     0.20340
F405        F  0.26455817  0.69955462  0.72358681    -0.12510
F406        F  0.24396415  0.61812294  0.79492061    -0.14870
F407        F  0.20580406  0.80967209  0.88045756    -0.14880
F408        F  0.18210214  0.72858814  0.94938664    -0.12510
C409        C  0.33991124  0.26616275  0.10561815     0.25500
C410        C  0.38838562  0.27603015  0.12637712    -0.22610
C411        C  0.39492567  0.29517077  0.18472857     0.20410
C412        C  0.35304509  0.30668189  0.22079976     0.25440
C413        C  0.30439825  0.30089489  0.19770071    -0.22550
C414        C  0.29817978  0.27905172  0.14070520     0.20340
F415        F  0.25151754  0.27270449  0.11774621    -0.12510
F416        F  0.33285929  0.24825980  0.04916395    -0.14870
F417        F  0.35988944  0.32670554  0.27634263    -0.14880
F418        F  0.44166725  0.30518823  0.20530148    -0.12510
C419        C  0.64429877  0.33027779  0.09662945     0.25500
C420        C  0.61428361  0.28905756  0.10979890    -0.22610
C421        C  0.63217744  0.25294251  0.15067676     0.20410
C422        C  0.67771789  0.26012284  0.18141421     0.25440
C423        C  0.70573200  0.30534060  0.17421535    -0.22550
C424        C  0.68911130  0.33769533  0.12650560     0.20340
F425        F  0.71644879  0.37624825  0.10459886    -0.12510
F426        F  0.63157980  0.36302434  0.05182317    -0.14870
F427        F  0.69515635  0.21984909  0.21226397    -0.14880
F428        F  0.60602248  0.21012751  0.16038050    -0.12510
C429        C  0.64449074  0.25310152  0.87300817     0.25500
C430        C  0.60344538  0.28719078  0.87305591    -0.22610
C431        C  0.60503962  0.32985001  0.83546952     0.20410
C432        C  0.64812302  0.34038184  0.80230166     0.25440
C433        C  0.69055309  0.30859899  0.80588121    -0.22550
C434        C  0.68792927  0.26388383  0.83970453     0.20340
F435        F  0.72844848  0.23247542  0.84362949    -0.12510
F436        F  0.64417864  0.21155108  0.90874654    -0.14870
F437        F  0.64907851  0.38292738  0.76834460    -0.14880
F438        F  0.56546576  0.36261073  0.83261245    -0.12510
C439        C  0.39292841  0.30789466  0.82491466     0.25500
C440        C  0.38776211  0.27627570  0.87523611    -0.22610
C441        C  0.34177433  0.25268961  0.88590969     0.20410
C442        C  0.29988599  0.26530469  0.85074304     0.25440
C443        C  0.30421651  0.30009963  0.80323738    -0.22550
C444        C  0.35167844  0.31887624  0.78838254     0.20340
F445        F  0.35782727  0.34953008  0.74010910    -0.12510
F446        F  0.43758572  0.32987713  0.81276931    -0.14870
F447        F  0.25458614  0.24585108  0.86522890    -0.14880
F448        F  0.33639956  0.22075387  0.93316329    -0.12510
loop_ 
_geom_bond_atom_site_label_1 
_geom_bond_atom_site_label_2 
_geom_bond_distance 
_geom_bond_site_symmetry_2 
_ccdc_geom_bond_type 
O1            V9   1.912       .  S
O1           C11   1.266       .  A
O2            V9   1.912   1_556  S
O2           C12   1.266       .  A
O3            V9   1.910   1_556  S
O3           C13   1.266       .  A
O4            V9   1.908       .  S
O4           C14   1.265       .  A
O5           V10   1.889   1_554  S
O5           C14   1.261       .  A
O6           V10   1.887       .  S
O6           C13   1.262       .  A
O7           V10   1.884       .  S
O7           C12   1.261       .  A
O8           V10   1.878   1_554  S
O8           C11   1.261       .  A
V9           V10   2.088   1_554  T
C11         C420   1.476       .  S
C12         C440   1.468       .  S
C13         C430   1.478       .  S
C14         C410   1.465       .  S
O15          V23   1.912   1_554  S
O15          C25   1.266       .  A
O16          V23   1.910       .  S
O16          C26   1.266       .  A
O17          V23   1.909   1_554  S
O17          C27   1.266       .  A
O18          V23   1.908       .  S
O18          C28   1.265       .  A
O19          V24   1.890       .  S
O19          C28   1.261       .  A
O20          V24   1.889   1_554  S
O20          C27   1.263       .  A
O21          V24   1.889       .  S
O21          C26   1.262       .  A
O22          V24   1.891   1_554  S
O22          C25   1.263       .  A
V23          V24   2.089       .  T
C25         C370   1.476       .  S
C26         C393   1.473       .  S
C27         C383   1.477       .  S
C28         C400   1.467       .  S
O29          V37   1.903       .  S
O29          C39   1.264       .  A
O30          V37   1.904   1_554  S
O30          C40   1.264       .  A
O31          V37   1.914   1_554  S
O31          C41   1.267       .  A
O32          V37   1.913       .  S
O32          C42   1.267       .  A
O33          V38   1.888   1_556  S
O33          C42   1.262       .  A
O34          V38   1.886       .  S
O34          C41   1.262       .  A
O35          V38   1.893       .  S
O35          C40   1.262       .  A
O36          V38   1.893   1_556  S
O36          C39   1.262       .  A
V37          V38   2.089   1_556  T
C39         C363   1.465       .  S
C40         C340   1.468       .  S
C41         C333   1.474       .  S
C42         C350   1.480       .  S
O43          V51   1.907       .  S
O43          C53   1.265       .  A
O44          V51   1.904   1_556  S
O44          C54   1.265       .  A
O45          V51   1.908       .  S
O45          C55   1.266       .  A
O46          V51   1.908   1_556  S
O46          C56   1.265       .  A
O47          V52   1.891   1_556  S
O47          C56   1.261       .  A
O48          V52   1.889       .  S
O48          C55   1.261       .  A
O49          V52   1.893   1_556  S
O49          C54   1.264       .  A
O50          V52   1.891       .  S
O50          C53   1.263       .  A
V51          V52   2.089       .  T
C53         C290   1.472       .  S
C54         C313   1.476       .  S
C55         C303   1.468       .  S
C56         C320   1.466       .  S
O57          V65   1.910       .  S
O57          C67   1.266       .  A
O58          V65   1.911       .  S
O58          C68   1.266   1_545  A
O59          V65   1.909       .  S
O59          C69   1.265   1_545  A
O60          V65   1.910       .  S
O60          C70   1.265       .  A
O61          V66   1.891       .  S
O61          C70   1.263       .  A
O62          V66   1.894       .  S
O62          C69   1.262   1_545  A
O63          V66   1.884       .  S
O63          C68   1.262   1_545  A
O64          V66   1.888       .  S
O64          C67   1.260       .  A
V65          V66   2.088       .  T
C67         C253   1.466       .  S
C68         C273   1.475       .  S
C69         C280   1.470       .  S
C70         C260   1.471       .  S
O71          V79   1.907       .  S
O71          C81   1.264       .  A
O72          V79   1.907   1_455  S
O72          C82   1.265       .  A
O73          V79   1.910       .  S
O73          C83   1.266       .  A
O74          V79   1.911   1_455  S
O74          C84   1.267       .  A
O75          V80   1.886   1_455  S
O75          C84   1.262       .  A
O76          V80   1.887       .  S
O76          C83   1.262       .  A
O77          V80   1.896   1_455  S
O77          C82   1.262       .  A
O78          V80   1.894       .  S
O78          C81   1.263       .  A
V79          V80   2.089       .  T
C81         C243   1.468       .  S
C82         C220   1.469       .  S
C83         C230   1.474       .  S
C84         C210   1.476       .  S
O85          V93   1.909       .  S
O85          C95   1.266       .  A
O86          V93   1.910       .  S
O86          C96   1.266       .  A
O87          V93   1.911       .  S
O87          C97   1.266       .  A
O88          V93   1.908       .  S
O88          C98   1.265   1_545  A
O89          V94   1.891       .  S
O89          C98   1.262   1_545  A
O90          V94   1.889       .  S
O90          C97   1.263       .  A
O91          V94   1.884       .  S
O91          C96   1.262       .  A
O92          V94   1.886       .  S
O92          C95   1.262       .  A
V93          V94   2.088       .  T
C95         C190   1.473   1_545  S
C96         C170   1.477       .  S
C97         C180   1.476       .  S
C98         C203   1.468       .  S
O99         V107   1.909       .  S
O99         C109   1.265       .  A
O100        V107   1.910   1_455  S
O100        C110   1.266       .  A
O101        V107   1.910       .  S
O101        C111   1.265       .  A
O102        V107   1.909   1_455  S
O102        C112   1.266       .  A
O103        V108   1.887   1_455  S
O103        C112   1.262       .  A
O104        V108   1.886       .  S
O104        C111   1.261       .  A
O105        V108   1.889   1_455  S
O105        C110   1.263       .  A
O106        V108   1.892       .  S
O106        C109   1.262       .  A
V107        V108   2.088       .  T
C109        C160   1.467       .  S
C110        C143   1.478       .  S
C111        C150   1.468       .  S
C112        C130   1.473       .  S
C113        C114   1.355       .  D
C113        C380   1.486       .  S
C113        C413   1.484       .  S
C114        C140   1.486       .  S
C114        C250   1.488       .  S
C115        C116   1.376       .  D
C115        C293   1.494       .  S
C115        C423   1.547       .  S
C116        C153   1.493       .  S
C116        C183   1.481       .  S
C117        C118   1.355       .  D
C117        C323   1.485       .  S
C117        C433   1.486       .  S
C118        C163   1.487       .  S
C118        C173   1.485       .  S
C119        C120   1.354       .  D
C119        C300   1.484       .  S
C119        C330   1.487       .  S
C120        C193   1.484       .  S
C120        C240   1.487       .  S
C121        C122   1.354       .  D
C121        C310   1.486       .  S
C121        C360   1.483       .  S
C122        C200   1.486       .  S
C122        C233   1.486       .  S
C123        C124   1.355       .  D
C123        C343   1.484       .  S
C123        C373   1.488       .  S
C124        C213   1.485       .  S
C124        C283   1.489       .  S
C125        C126   1.358       .  D
C125        C353   1.489       .  S
C125        C403   1.484       .  S
C126        C223   1.494       .  S
C126        C270   1.485       .  S
C127        C128   1.353       .  D
C127        C390   1.487       .  S
C127        C443   1.484       .  S
C128        C133   1.485       .  S
C128        C263   1.486       .  S
C129        C130   1.406       .  A
C129        C134   1.402       .  A
C129        F136   1.358       .  S
C130        C131   1.404       .  A
C131        C132   1.395       .  A
C131        F138   1.358       .  S
C132        C133   1.404       .  A
C132        F137   1.355       .  S
C133        C134   1.406       .  A
C134        F135   1.357       .  S
C139        C140   1.403       .  A
C139        C144   1.393       .  A
C139        F146   1.358       .  S
C140        C141   1.407       .  A
C141        C142   1.404       .  A
C141        F148   1.357       .  S
C142        C143   1.409       .  A
C142        F147   1.358       .  S
C143        C144   1.406       .  A
C144        F145   1.358       .  S
C149        C150   1.403       .  A
C149        C154   1.400       .  A
C149        F156   1.356       .  S
C150        C151   1.403       .  A
C151        C152   1.395       .  A
C151        F158   1.358       .  S
C152        C153   1.405       .  A
C152        F157   1.355       .  S
C153        C154   1.407       .  A
C154        F155   1.357       .  S
C159        C160   1.404       .  A
C159        C164   1.403       .  A
C159        F166   1.358       .  S
C160        C161   1.400       .  A
C161        C162   1.394       .  A
C161        F168   1.355       .  S
C162        C163   1.405       .  A
C162        F167   1.358       .  S
C163        C164   1.407       .  A
C164        F165   1.357       .  S
C169        C170   1.406       .  A
C169        C174   1.392       .  A
C169        F176   1.359       .  S
C170        C171   1.408       .  A
C171        C172   1.404       .  A
C171        F178   1.357       .  S
C172        C173   1.406       .  A
C172        F177   1.357       .  S
C173        C174   1.402       .  A
C174        F175   1.358       .  S
C179        C180   1.404       .  A
C179        C184   1.393       .  A
C179        F186   1.359       .  S
C180        C181   1.407       .  A
C181        C182   1.405       .  A
C181        F188   1.357       .  S
C182        C183   1.408       .  A
C182        F187   1.357       .  S
C183        C184   1.406       .  A
C184        F185   1.355       .  S
C189        C190   1.405       .  A
C189        C194   1.393       .  A
C189        F196   1.359   1_565  S
C190        C191   1.406       .  A
C191        C192   1.403       .  A
C191        F198   1.357       .  S
C192        C193   1.406       .  A
C192        F197   1.357       .  S
C193        C194   1.403       .  A
C194        F195   1.356       .  S
C199        C200   1.405       .  A
C199        C204   1.399       .  A
C199        F206   1.357       .  S
C200        C201   1.406       .  A
C201        C202   1.399       .  A
C201        F208   1.357       .  S
C202        C203   1.403       .  A
C202        F207   1.358       .  S
C203        C204   1.404       .  A
C204        F205   1.358   1_565  S
C209        C210   1.407       .  A
C209        C214   1.403       .  A
C209        F216   1.358       .  S
C210        C211   1.406       .  A
C211        C212   1.394       .  A
C211        F218   1.359       .  S
C212        C213   1.403       .  A
C212        F217   1.356       .  S
C213        C214   1.406       .  A
C214        F215   1.357       .  S
C219        C220   1.403       .  A
C219        C224   1.404       .  A
C219        F226   1.358       .  S
C220        C221   1.401       .  A
C221        C222   1.397       .  A
C221        F228   1.358       .  S
C222        C223   1.408       .  A
C222        F227   1.357       .  S
C223        C224   1.410       .  A
C224        F225   1.356       .  S
C229        C230   1.404       .  A
C229        C234   1.393       .  A
C229        F236   1.358       .  S
C230        C231   1.407       .  A
C231        C232   1.404       .  A
C231        F238   1.357       .  S
C232        C233   1.406       .  A
C232        F237   1.357       .  S
C233        C234   1.404       .  A
C234        F235   1.356       .  S
C239        C240   1.406       .  A
C239        C244   1.400       .  A
C239        F246   1.356       .  S
C240        C241   1.406       .  A
C241        C242   1.399       .  A
C241        F248   1.357       .  S
C242        C243   1.402       .  A
C242        F247   1.358       .  S
C243        C244   1.403       .  A
C244        F245   1.358       .  S
C249        C250   1.404       .  A
C249        C254   1.393       .  A
C249        F256   1.358       .  S
C250        C251   1.408       .  A
C251        C252   1.403       .  A
C251        F258   1.356       .  S
C252        C253   1.403       .  A
C252        F257   1.357       .  S
C253        C254   1.400       .  A
C254        F255   1.355       .  S
C259        C260   1.403       .  A
C259        C264   1.396       .  A
C259        F266   1.358       .  S
C260        C261   1.404       .  A
C261        C262   1.401       .  A
C261        F268   1.356       .  S
C262        C263   1.406       .  A
C262        F267   1.357       .  S
C263        C264   1.404       .  A
C264        F265   1.355       .  S
C269        C270   1.402       .  A
C269        C274   1.391       .  A
C269        F276   1.358       .  S
C270        C271   1.407       .  A
C271        C272   1.404       .  A
C271        F278   1.357       .  S
C272        C273   1.408       .  A
C272        F277   1.358       .  S
C273        C274   1.406       .  A
C274        F275   1.359       .  S
C279        C280   1.403       .  A
C279        C284   1.400       .  A
C279        F286   1.358   1_565  S
C280        C281   1.404       .  A
C281        C282   1.400       .  A
C281        F288   1.358       .  S
C282        C283   1.406       .  A
C282        F287   1.357       .  S
C283        C284   1.406       .  A
C284        F285   1.356       .  S
C289        C290   1.406       .  A
C289        C294   1.397       .  A
C289        F296   1.358       .  S
C290        C291   1.406       .  A
C291        C292   1.401       .  A
C291        F298   1.357       .  S
C292        C293   1.406       .  A
C292        F297   1.357       .  S
C293        C294   1.406       .  A
C294        F295   1.358       .  S
C299        C300   1.404       .  A
C299        C304   1.398       .  A
C299        F306   1.356       .  S
C300        C301   1.406       .  A
C301        C302   1.399       .  A
C301        F308   1.357       .  S
C302        C303   1.403       .  A
C302        F307   1.358       .  S
C303        C304   1.404       .  A
C304        F305   1.358       .  S
C309        C310   1.405       .  A
C309        C314   1.395       .  A
C309        F316   1.356       .  S
C310        C311   1.406       .  A
C311        C312   1.401       .  A
C311        F318   1.357       .  S
C312        C313   1.408       .  A
C312        F317   1.358       .  S
C313        C314   1.405       .  A
C314        F315   1.358       .  S
C319        C320   1.404       .  A
C319        C324   1.401       .  A
C319        F326   1.358       .  S
C320        C321   1.401       .  A
C321        C322   1.396       .  A
C321        F328   1.358       .  S
C322        C323   1.405       .  A
C322        F327   1.358       .  S
C323        C324   1.406       .  A
C324        F325   1.357       .  S
C329        C330   1.407       .  A
C329        C334   1.405       .  A
C329        F336   1.357       .  S
C330        C331   1.404       .  A
C331        C332   1.394       .  A
C331        F338   1.356       .  S
C332        C333   1.404       .  A
C332        F337   1.358       .  S
C333        C334   1.407       .  A
C334        F335   1.357       .  S
C339        C340   1.404       .  A
C339        C344   1.399       .  A
C339        F346   1.358       .  S
C340        C341   1.403       .  A
C341        C342   1.398       .  A
C341        F348   1.358       .  S
C342        C343   1.405       .  A
C342        F347   1.357       .  S
C343        C344   1.405       .  A
C344        F345   1.356       .  S
C349        C350   1.406       .  A
C349        C354   1.394       .  A
C349        F356   1.359       .  S
C350        C351   1.408       .  A
C351        C352   1.405       .  A
C351        F358   1.357       .  S
C352        C353   1.407       .  A
C352        F357   1.357       .  S
C353        C354   1.404       .  A
C354        F355   1.357       .  S
C359        C360   1.405       .  A
C359        C364   1.400       .  A
C359        F366   1.357       .  S
C360        C361   1.405       .  A
C361        C362   1.396       .  A
C361        F368   1.358       .  S
C362        C363   1.402       .  A
C362        F367   1.358       .  S
C363        C364   1.403       .  A
C364        F365   1.358       .  S
C369        C370   1.404       .  A
C369        C374   1.395       .  A
C369        F376   1.358       .  S
C370        C371   1.407       .  A
C371        C372   1.404       .  A
C371        F378   1.357       .  S
C372        C373   1.407       .  A
C372        F377   1.357       .  S
C373        C374   1.404       .  A
C374        F375   1.356       .  S
C379        C380   1.404       .  A
C379        C384   1.393       .  A
C379        F386   1.357       .  S
C380        C381   1.406       .  A
C381        C382   1.404       .  A
C381        F388   1.357       .  S
C382        C383   1.408       .  A
C382        F387   1.357       .  S
C383        C384   1.405       .  A
C384        F385   1.359       .  S
C389        C390   1.405       .  A
C389        C394   1.395       .  A
C389        F396   1.355       .  S
C390        C391   1.406       .  A
C391        C392   1.403       .  A
C391        F398   1.357       .  S
C392        C393   1.406       .  A
C392        F397   1.358       .  S
C393        C394   1.404       .  A
C394        F395   1.358       .  S
C399        C400   1.405       .  A
C399        C404   1.402       .  A
C399        F406   1.358       .  S
C400        C401   1.401       .  A
C401        C402   1.396       .  A
C401        F408   1.357       .  S
C402        C403   1.405       .  A
C402        F407   1.358       .  S
C403        C404   1.405       .  A
C404        F405   1.357       .  S
C409        C410   1.401       .  A
C409        C414   1.394       .  A
C409        F416   1.355       .  S
C410        C411   1.404       .  A
C411        C412   1.401       .  A
C411        F418   1.358       .  S
C412        C413   1.406       .  A
C412        F417   1.357       .  S
C413        C414   1.404       .  A
C414        F415   1.358       .  S
C419        C420   1.394       .  A
C419        C424   1.384       .  A
C419        F426   1.360       .  S
C420        C421   1.399       .  A
C421        C422   1.409       .  A
C421        F428   1.358       .  S
C422        C423   1.431       .  A
C422        F427   1.346       .  S
C423        C424   1.430       .  A
C424        F425   1.353       .  S
C429        C430   1.409       .  A
C429        C434   1.404       .  A
C429        F436   1.358       .  S
C430        C431   1.406       .  A
C431        C432   1.393       .  A
C431        F438   1.358       .  S
C432        C433   1.403       .  A
C432        F437   1.357       .  S
C433        C434   1.406       .  A
C434        F435   1.357       .  S
C439        C440   1.404       .  A
C439        C444   1.395       .  A
C439        F446   1.358       .  S
C440        C441   1.403       .  A
C441        C442   1.400       .  A
C441        F448   1.356       .  S
C442        C443   1.406       .  A
C442        F447   1.357       .  S
C443        C444   1.404       .  A
C444        F445   1.355       .  S
