geometry optimzed in LAMMPS
_audit_creation_date              2020-12-01 
_audit_creation_method            'lammps2cif' 
_symmetry_space_group_name_H-M    'P1' 
_symmetry_Int_Tables_number       1 
_symmetry_cell_setting            triclinic 
loop_ 
_symmetry_equiv_pos_as_xyz 
  x,y,z 
_cell_length_a                    48.70248079 
_cell_length_b                    48.61613538052119 
_cell_length_c                    48.78734400575743 
_cell_angle_alpha                 90.03139925011425 
_cell_angle_beta                  89.93119283758834 
_cell_angle_gamma                 90.05463219981546 
loop_ 
_atom_site_label 
_atom_site_type_symbol 
_atom_site_fract_x 
_atom_site_fract_y 
_atom_site_fract_z 
_atom_site_charge 
Fe1        Fe  0.19166744  0.58169098  0.52272120     1.65800
Fe2        Fe  0.12433638  0.58844522  0.53511294     1.73200
Fe3        Fe  0.17006677  0.61700630  0.57903743     1.54400
O4          O  0.19538271  0.58639970  0.59379728    -0.81500
O5          O  0.10992791  0.62594361  0.54943062    -0.79900
O6          O  0.21601332  0.57138303  0.55587451    -0.84100
O7          O  0.20945941  0.61950811  0.51980656    -0.78900
O8          O  0.13727472  0.59896502  0.60094099    -0.80700
O9          O  0.12966494  0.60664808  0.49799715    -0.83400
C10         C  0.21597939  0.63657530  0.53823944     0.97300
C11         C  0.21377643  0.57228591  0.58183629     1.04800
O12         O  0.16214741  0.59587409  0.54566461    -1.12400
O13         O  0.13245197  0.54977592  0.51840762    -0.74800
O14         O  0.17688887  0.54208739  0.52326027    -0.78300
O15         O  0.20435326  0.63727331  0.56171146    -0.79000
C16         C  0.15302381  0.53378233  0.51717571     0.96200
O17         O  0.17086568  0.59036428  0.48666108    -0.77000
O18         O  0.11709064  0.56988024  0.57171694    -0.82200
C19         C  0.12033591  0.64806419  0.55865300     0.98900
C20         C  0.12067703  0.57931394  0.59561914     1.04800
O21         O  0.14500534  0.64938850  0.56708098    -0.77800
C22         C  0.14836763  0.60211286  0.48057133     1.03100
Fe23       Fe  0.16057225  0.55477403  0.23686182     1.65800
Fe24       Fe  0.14991148  0.62181691  0.22755426     1.73200
Fe25       Fe  0.12294818  0.57617819  0.18222213     1.54400
O26         O  0.15334590  0.55136721  0.16624781    -0.81500
O27         O  0.11272598  0.63593334  0.21266557    -0.79900
O28         O  0.17156294  0.53173482  0.20323606    -0.84100
O29         O  0.12426130  0.53467245  0.24007196    -0.78900
O30         O  0.14118213  0.60963143  0.16122605    -0.80700
O31         O  0.13090146  0.61395476  0.26380872    -0.83400
C32         C  0.10564006  0.52896551  0.22293374     0.97300
C33         C  0.16930959  0.53414700  0.17747081     1.04800
O34         O  0.14417020  0.58406735  0.21539157    -1.12400
O35         O  0.18820841  0.61465400  0.24569310    -0.74800
O36         O  0.19879643  0.57198393  0.23515437    -0.78300
O37         O  0.10309101  0.54159253  0.20002109    -0.79000
C38         C  0.20529411  0.59489207  0.24532337     0.96200
O39         O  0.15153752  0.57433568  0.27363129    -0.77000
O40         O  0.16878811  0.63079295  0.19148765    -0.82200
C41         C  0.09107058  0.62530068  0.20285886     0.98900
C42         C  0.15999895  0.62703956  0.16731974     1.04800
O43         O  0.09024677  0.60063057  0.19435719    -0.77800
C44         C  0.13762543  0.59534508  0.28063638     1.03100
Fe45       Fe  0.24154661  0.14690603  0.56908028     1.65800
Fe46       Fe  0.23284127  0.13766834  0.63637782     1.73200
Fe47       Fe  0.18634221  0.11038432  0.59237214     1.54400
O48         O  0.17076429  0.14018528  0.56658906    -0.81500
O49         O  0.21732463  0.10128830  0.65204190    -0.79900
O50         O  0.20756289  0.15889327  0.54688010    -0.84100
O51         O  0.24335311  0.10996822  0.54971395    -0.78900
O52         O  0.16600610  0.13056663  0.62502673    -0.80700
O53         O  0.26854040  0.11766544  0.62816343    -0.83400
C54         C  0.22651590  0.09053992  0.54585616     0.97300
C55         C  0.18174454  0.15641531  0.54943145     1.04800
O56         O  0.22004093  0.13143263  0.59908260    -1.12400
O57         O  0.25148774  0.17540866  0.62813578    -0.74800
O58         O  0.24180538  0.18573376  0.58526279    -0.78300
O59         O  0.20366648  0.08857935  0.55877204    -0.79000
C60         C  0.25122283  0.19239913  0.60841858     0.96200
O61         O  0.27845902  0.13712758  0.58812818    -0.77000
O62         O  0.19732780  0.15759067  0.64550644    -0.82200
C63         C  0.20635332  0.07963347  0.64259331     0.98900
C64         C  0.17278998  0.14963348  0.64189376     1.04800
O65         O  0.19758357  0.07821799  0.61812177    -0.77800
C66         C  0.28554739  0.12399566  0.60961509     1.03100
Fe67       Fe  0.53013263  0.17276831  0.59285827     1.65800
Fe68       Fe  0.54282641  0.10602384  0.60391476     1.73200
Fe69       Fe  0.58463766  0.15402752  0.63271406     1.54400
O70         O  0.59979878  0.18145952  0.60385939    -0.81500
O71         O  0.55784336  0.09176761  0.64099017    -0.79900
O72         O  0.56308576  0.19646589  0.58117890    -0.84100
O73         O  0.52596220  0.19385951  0.62864047    -0.78900
O74         O  0.60856977  0.12313645  0.61340944    -0.80700
O75         O  0.50554888  0.11178376  0.62188938    -0.83400
C76         C  0.54084284  0.19849238  0.64939557     0.97300
C77         C  0.58867276  0.19653172  0.58576053     1.04800
O78         O  0.55264112  0.14451081  0.61011277    -1.12400
O79         O  0.52533322  0.11187611  0.56531578    -0.74800
O80         O  0.53219670  0.15531637  0.55469546    -0.78300
O81         O  0.56355209  0.18592304  0.65358047    -0.79000
C82         C  0.52472622  0.13137185  0.54808892     0.96200
O83         O  0.49423435  0.15175614  0.60244655    -0.77000
O84         O  0.57977029  0.09978814  0.58588429    -0.82200
C85         C  0.56673713  0.10239147  0.66294823     0.98900
C86         C  0.60371949  0.10592223  0.59406044     1.04800
O87         O  0.57370609  0.12750249  0.66444017    -0.77800
C88         C  0.48797706  0.12981150  0.61536492     1.03100
Fe89       Fe  0.60101095  0.50957109  0.19058824     1.65800
Fe90       Fe  0.60785192  0.52316609  0.12398274     1.73200
Fe91       Fe  0.63525247  0.56658851  0.17042664     1.54400
O92         O  0.60388284  0.58069981  0.19489259    -0.81500
O93         O  0.64518020  0.53889950  0.11000080    -0.79900
O94         O  0.59197562  0.54214083  0.21651497    -0.84100
O95         O  0.63933883  0.50556671  0.20640209    -0.78900
O96         O  0.61792396  0.58851932  0.13717827    -0.80700
O97         O  0.62738315  0.48672716  0.12907424    -0.83400
C98         C  0.65529741  0.52431403  0.21458817     0.97300
C99         C  0.59128602  0.56817096  0.21395227     1.04800
O100        O  0.61467861  0.53328897  0.16173856    -1.12400
O101        O  0.56956137  0.50505139  0.13226432    -0.74800
O102        O  0.56143949  0.51135703  0.17653294    -0.78300
O103        O  0.65466027  0.54878036  0.20500197    -0.79000
C104        C  0.55355331  0.50401364  0.15292131     0.96200
O105        O  0.60844118  0.47396366  0.16850700    -0.77000
O106        O  0.58842185  0.55943663  0.11733010    -0.82200
C107        C  0.66718683  0.54732755  0.12129731     0.98900
C108        C  0.59849571  0.58323167  0.12032490     1.04800
O109        O  0.66811378  0.55463530  0.14628529    -0.77800
C110        C  0.62189626  0.46864041  0.14683018     1.03100
Fe111      Fe  0.57064874  0.22944574  0.16134995     1.65800
Fe112      Fe  0.63767577  0.21836074  0.15491072     1.73200
Fe113      Fe  0.59306968  0.17264293  0.12821496     1.54400
O114        O  0.56767560  0.15854471  0.15897012    -0.81500
O115        O  0.65344902  0.20100406  0.11936418    -0.79900
O116        O  0.54565829  0.19664411  0.17120932    -0.84100
O117        O  0.55403345  0.23217996  0.12350869    -0.78900
O118        O  0.62628816  0.15228955  0.14791943    -0.80700
O119        O  0.63120771  0.25347039  0.13341007    -0.83400
C120        C  0.54762414  0.21346683  0.10669746     0.97300
C121        C  0.54859126  0.17071310  0.17187034     1.04800
O122        O  0.60031090  0.20662034  0.14794237    -1.12400
O123        O  0.62840517  0.23802099  0.19189466    -0.74800
O124        O  0.58503671  0.22803129  0.20053118    -0.78300
O125        O  0.55892852  0.18964056  0.10687868    -0.79000
C126        C  0.60799539  0.23719469  0.20818446     0.96200
O127        O  0.59182084  0.26555403  0.15296836    -0.77000
O128        O  0.64496322  0.18337035  0.17624770    -0.82200
C129        C  0.64316308  0.19130609  0.09751759     0.98900
C130        C  0.64230623  0.15890580  0.16773581     1.04800
O131        O  0.61824259  0.18384367  0.09586213    -0.77800
C132        C  0.61300218  0.27120813  0.13877474     1.03100
Fe133      Fe  0.69470192  0.89257602  0.48656456     1.65800
Fe134      Fe  0.62709543  0.88635746  0.47685971     1.73200
Fe135      Fe  0.67076462  0.85788593  0.43099783     1.54400
O136        O  0.69639599  0.88797648  0.41575608    -0.81500
O137        O  0.61102238  0.84978183  0.46167913    -0.79900
O138        O  0.71852552  0.90253856  0.45296092    -0.84100
O139        O  0.71191515  0.85467755  0.48911741    -0.78900
O140        O  0.63779402  0.87766640  0.41062896    -0.80700
O141        O  0.63392549  0.86635176  0.51257354    -0.83400
C142        C  0.71690964  0.83673560  0.47104420     0.97300
C143        C  0.71521404  0.90192799  0.42715753     1.04800
O144        O  0.66433641  0.87874287  0.46465439    -1.12400
O145        O  0.63665690  0.92427160  0.49503754    -0.74800
O146        O  0.68027940  0.93210392  0.48589498    -0.78300
O147        O  0.70470888  0.83617339  0.44778658    -0.79000
C148        C  0.65739890  0.94024757  0.49490509     0.96200
O149        O  0.67465962  0.88420422  0.52317897    -0.77000
O150        O  0.61887918  0.90630982  0.44128763    -0.82200
C151        C  0.62068847  0.82762721  0.45179439     0.98900
C152        C  0.62149845  0.89733811  0.41706586     1.04800
O153        O  0.64518211  0.82592878  0.44298170    -0.77800
C154        C  0.65281500  0.87136018  0.52958810     1.03100
Fe155      Fe  0.66625387  0.92596407  0.77113804     1.65800
Fe156      Fe  0.66050922  0.85864305  0.78179642     1.73200
Fe157      Fe  0.62982323  0.90253681  0.82555065     1.54400
O158        O  0.65904635  0.92868617  0.84174390    -0.81500
O159        O  0.62451623  0.84187012  0.79736687    -0.79900
O160        O  0.67427896  0.95069089  0.80471085    -0.84100
O161        O  0.62815925  0.94242118  0.76650451    -0.78900
O162        O  0.64920676  0.86984632  0.84701307    -0.80700
O163        O  0.64091908  0.86453962  0.74559764    -0.83400
C164        C  0.60986527  0.94796808  0.78406613     0.97300
C165        C  0.67265310  0.94796126  0.83054092     1.04800
O166        O  0.65197058  0.89593043  0.79296683    -1.12400
O167        O  0.69819027  0.86849590  0.76381097    -0.74800
O168        O  0.70580275  0.91196434  0.77406562    -0.78300
O169        O  0.60883141  0.93641891  0.80765389    -0.79000
C170        C  0.71414859  0.88918112  0.76489516     0.96200
O171        O  0.65985953  0.90475441  0.73472837    -0.77000
O172        O  0.68011916  0.85228920  0.81780546    -0.82200
C173        C  0.60149197  0.85148535  0.80492623     0.98900
C174        C  0.67026367  0.85492173  0.84169508     1.04800
O175        O  0.59868215  0.87649109  0.81203455    -0.77800
C176        C  0.64686955  0.88297426  0.72825606     1.03100
Fe177      Fe  0.27170863  0.83489242  0.06561267     1.65800
Fe178      Fe  0.27825986  0.84712365  0.13292068     1.73200
Fe179      Fe  0.32647348  0.87223705  0.08910548     1.54400
O180        O  0.34219455  0.84242261  0.06330404    -0.81500
O181        O  0.29307806  0.88408883  0.14768689    -0.79900
O182        O  0.30605357  0.82059197  0.04572523    -0.84100
O183        O  0.27201287  0.87041998  0.04380357    -0.78900
O184        O  0.34605967  0.85158251  0.12182909    -0.80700
O185        O  0.24313563  0.86704494  0.12256501    -0.83400
C186        C  0.28812253  0.89061005  0.04097892     0.97300
C187        C  0.33169031  0.82462062  0.04746002     1.04800
O188        O  0.29237763  0.85157986  0.09567576    -1.12400
O189        O  0.25985163  0.80900273  0.12625021    -0.74800
O190        O  0.26941702  0.79704241  0.08371534    -0.78300
O191        O  0.30968056  0.89404901  0.05556175    -0.79000
C192        C  0.26036177  0.79124557  0.10723190     0.96200
O193        O  0.23454635  0.84740417  0.08223946    -0.77000
O194        O  0.31333930  0.82742587  0.14382113    -0.82200
C195        C  0.30511985  0.90503602  0.13805395     0.98900
C196        C  0.33829790  0.83331568  0.13915102     1.04800
O197        O  0.31565159  0.90504682  0.11426608    -0.77800
C198        C  0.22726885  0.86204942  0.10261052     1.03100
Fe199      Fe  0.98811595  0.80466164  0.09715679     1.65800
Fe200      Fe  0.97346014  0.87158311  0.10064060     1.73200
Fe201      Fe  0.93344659  0.82634049  0.13414136     1.54400
O202        O  0.91765785  0.79961187  0.10548283    -0.81500
O203        O  0.95858346  0.88815285  0.13715232    -0.79900
O204        O  0.95539513  0.77832341  0.09059962    -0.84100
O205        O  0.99419422  0.78959492  0.13542884    -0.78900
O206        O  0.90966251  0.85772783  0.11576716    -0.80700
O207        O  0.01100332  0.86895281  0.11833419    -0.83400
C208        C  0.97686363  0.78276847  0.15350686     0.97300
C209        C  0.92943361  0.78086973  0.09168979     1.04800
O210        O  0.96502331  0.83401321  0.11085160    -1.12400
O211        O  0.99045047  0.86142545  0.06251349    -0.74800
O212        O  0.98391993  0.81688494  0.05727668    -0.78300
O213        O  0.95296753  0.79353185  0.15480737    -0.79000
C214        C  0.99122641  0.83984918  0.04773467     0.96200
O215        O  0.02362331  0.82796012  0.10207751    -0.77000
O216        O  0.93615124  0.87519631  0.08266532    -0.82200
C217        C  0.95301999  0.87838267  0.16070903     0.98900
C218        C  0.91307204  0.87251199  0.09433233     1.04800
O219        O  0.94746480  0.85308246  0.16416977    -0.77800
C220        C  0.02917116  0.85119888  0.11282273     1.03100
Fe221      Fe  0.41190965  0.00745350  0.31617217     1.65800
Fe222      Fe  0.40172210  0.01584891  0.38370161     1.73200
Fe223      Fe  0.37508691  0.06280649  0.33936757     1.54400
O224        O  0.40401772  0.07788365  0.31235646    -0.81500
O225        O  0.36475830  0.03005571  0.39901144    -0.79900
O226        O  0.42419996  0.04115602  0.29401798    -0.84100
O227        O  0.37545474  0.00626121  0.29634180    -0.78900
O228        O  0.39660020  0.08365056  0.37086273    -0.80700
O229        O  0.38239084  0.97999744  0.37471987    -0.83400
C230        C  0.35517379  0.02216750  0.29327754     0.97300
C231        C  0.42059382  0.06688170  0.29560065     1.04800
O232        O  0.39612917  0.02899242  0.34626528    -1.12400
O233        O  0.44014892  0.99845374  0.37616619    -0.74800
O234        O  0.45052948  0.00641064  0.33277138    -0.78300
O235        O  0.35234338  0.04462462  0.30680276    -0.79000
C236        C  0.45720653  0.99845943  0.35648036     0.96200
O237        O  0.40123969  0.97057280  0.33433181    -0.77000
O238        O  0.42069507  0.05157608  0.39373349    -0.82200
C239        C  0.34370666  0.04213719  0.38979507     0.98900
C240        C  0.41466762  0.07639170  0.38855537     1.04800
O241        O  0.34317577  0.05281169  0.36606338    -0.77800
C242        C  0.38724112  0.96359253  0.35516761     1.03100
Fe243      Fe  0.43945518  0.72509471  0.34945929     1.65800
Fe244      Fe  0.37269029  0.71176251  0.35589742     1.73200
Fe245      Fe  0.41815034  0.66926407  0.38573372     1.54400
O246        O  0.44543374  0.65437581  0.35690307    -0.81500
O247        O  0.35632724  0.69416289  0.39105053    -0.79900
O248        O  0.46455484  0.69231279  0.33970005    -0.84100
O249        O  0.45730666  0.72876342  0.38680003    -0.78900
O250        O  0.38650075  0.64683894  0.36550144    -0.80700
O251        O  0.37718375  0.74756449  0.37652267    -0.83400
C252        C  0.46272491  0.71172085  0.40561725     0.97300
C253        C  0.46334576  0.66631151  0.34215812     1.04800
O254        O  0.41043760  0.70192313  0.36391126    -1.12400
O255        O  0.38117428  0.73161460  0.31899566    -0.74800
O256        O  0.42471476  0.72348368  0.31005182    -0.78300
O257        O  0.45078961  0.68830261  0.40746407    -0.79000
C258        C  0.40143411  0.73203718  0.30260896     0.96200
O259        O  0.41716602  0.76060610  0.35804362    -0.77000
O260        O  0.36812375  0.67617146  0.33519738    -0.82200
C261        C  0.36615988  0.68683705  0.41394880     0.98900
C262        C  0.37143412  0.65214042  0.34456970     1.04800
O263        O  0.39145733  0.68128608  0.41684048    -0.77800
C264        C  0.39479361  0.76579091  0.37065033     1.03100
Fe265      Fe  0.49530442  0.67766553  0.90522306     1.65800
Fe266      Fe  0.48008011  0.61059006  0.89913020     1.73200
Fe267      Fe  0.43492698  0.65832920  0.87548526     1.54400
O268        O  0.42439559  0.68448897  0.90712963    -0.81500
O269        O  0.46237388  0.59698175  0.86312008    -0.79900
O270        O  0.46444657  0.70276504  0.91976755    -0.84100
O271        O  0.49502922  0.69611860  0.86780168    -0.78900
O272        O  0.41343699  0.62703552  0.89649935    -0.80700
O273        O  0.51571478  0.61490686  0.87786120    -0.83400
C274        C  0.47566676  0.70251951  0.85181561     0.97300
C275        C  0.43849699  0.70125219  0.92128984     1.04800
O276        O  0.47003645  0.64897391  0.89306471    -1.12400
O277        O  0.49998805  0.61759563  0.93634017    -0.74800
O278        O  0.49807440  0.66231009  0.94416294    -0.78300
O279        O  0.45186872  0.69147721  0.85301759    -0.79000
C280        C  0.50322830  0.63812821  0.95210625     0.96200
O281        O  0.52957660  0.65594389  0.89262888    -0.77000
O282        O  0.44504099  0.60415031  0.92061098    -0.82200
C283        C  0.45099464  0.60777933  0.84239480     0.98900
C284        C  0.42034384  0.61005838  0.91524472     1.04800
O285        O  0.44218570  0.63239481  0.84231407    -0.77800
C286        C  0.53399509  0.63315580  0.88067004     1.03100
Fe287      Fe  0.77310099  0.64222955  0.94159421     1.65800
Fe288      Fe  0.78544073  0.63292822  0.87520864     1.73200
Fe289      Fe  0.82938940  0.60608279  0.92183345     1.54400
O290        O  0.84373157  0.63714269  0.94689481    -0.81500
O291        O  0.80048493  0.59556331  0.86143359    -0.79900
O292        O  0.80544093  0.65188202  0.96700047    -0.84100
O293        O  0.76884941  0.60479172  0.95917932    -0.78900
O294        O  0.85157464  0.62447965  0.88931999    -0.80700
O295        O  0.74893809  0.61376672  0.88154859    -0.83400
C296        C  0.78650922  0.58714271  0.96633932     0.97300
C297        C  0.83137967  0.65136857  0.96488625     1.04800
O298        O  0.79621220  0.62688537  0.91299580    -1.12400
O299        O  0.76776910  0.67152477  0.88259235    -0.74800
O300        O  0.77577421  0.68120278  0.92600610    -0.78300
O301        O  0.81063385  0.58609780  0.95584011    -0.79000
C302        C  0.76766050  0.68845148  0.90253915     0.96200
O303        O  0.73714757  0.63465121  0.92017621    -0.77000
O304        O  0.82171866  0.65185148  0.86747083    -0.82200
C305        C  0.80987209  0.57378399  0.87225576     0.98900
C306        C  0.84587751  0.64341672  0.87199349     1.04800
O307        O  0.81831949  0.57310887  0.89690912    -0.77800
C308        C  0.73105115  0.62078027  0.89897658     1.03100
Fe309      Fe  0.32464865  0.39996497  0.02111829     1.65800
Fe310      Fe  0.39074381  0.39099526  0.03602649     1.73200
Fe311      Fe  0.34228963  0.36290744  0.07714158     1.54400
O312        O  0.31714126  0.39390336  0.09146106    -0.81500
O313        O  0.40401241  0.35346598  0.05146663    -0.79900
O314        O  0.29834176  0.40937186  0.05288767    -0.84100
O315        O  0.30686901  0.36273589  0.01560179    -0.78900
O316        O  0.37476152  0.38012520  0.10067630    -0.80700
O317        O  0.38618853  0.37213064  0.99924692    -0.83400
C318        C  0.29847900  0.34516957  0.03276576     0.97300
C319        C  0.29956617  0.40841795  0.07885978     1.04800
O320        O  0.35243050  0.38445996  0.04493852    -1.12400
O321        O  0.38393950  0.42971604  0.01823765    -0.74800
O322        O  0.34007012  0.43885840  0.02465527    -0.78300
O323        O  0.30825554  0.34374583  0.05714205    -0.79000
C324        C  0.36376377  0.44637010  0.01740248     0.96200
O325        O  0.34744649  0.39228571  0.98606155    -0.77000
O326        O  0.39661270  0.40954817  0.07281077    -0.82200
C327        C  0.39259446  0.33136200  0.05943501     0.98900
C328        C  0.39225046  0.39937676  0.09630282     1.04800
O329        O  0.36723955  0.33018115  0.06563247    -0.77800
C330        C  0.36902815  0.37844128  0.98094830     1.03100
Fe331      Fe  0.35182801  0.42158050  0.74002881     1.65800
Fe332      Fe  0.36395714  0.35534826  0.72609304     1.73200
Fe333      Fe  0.38966203  0.40434181  0.68379458     1.54400
O334        O  0.35854404  0.42961557  0.66990492    -0.81500
O335        O  0.40146080  0.34289018  0.71048596    -0.79900
O336        O  0.34055275  0.44703985  0.70815178    -0.84100
O337        O  0.38814964  0.44168503  0.74449666    -0.78900
O338        O  0.37195587  0.37230176  0.66054577    -0.80700
O339        O  0.38258531  0.36138161  0.76288447    -0.83400
C340        C  0.40681646  0.44842894  0.72772794     0.97300
C341        C  0.34274004  0.44625951  0.68226564     1.04800
O342        O  0.36868310  0.39394022  0.71646317    -1.12400
O343        O  0.32539584  0.36054949  0.74408138    -0.74800
O344        O  0.31361324  0.40384209  0.73769950    -0.78300
O345        O  0.40900223  0.43784479  0.70378653    -0.79000
C346        C  0.30760843  0.37959668  0.74500275     0.96200
O347        O  0.36107872  0.39982072  0.77527609    -0.77000
O348        O  0.34548790  0.34805885  0.68949775    -0.82200
C349        C  0.42278128  0.35434741  0.70087801     0.98900
C350        C  0.35373994  0.35397696  0.66556014     1.04800
O351        O  0.42306963  0.37953729  0.69387584    -0.77800
C352        C  0.37520182  0.37855081  0.78089695     1.03100
Fe353      Fe  0.06809395  0.25592202  0.85028009     1.65800
Fe354      Fe  0.13495728  0.26428501  0.86278083     1.73200
Fe355      Fe  0.08982102  0.31289888  0.88491647     1.54400
O356        O  0.06514960  0.32694675  0.85324359    -0.81500
O357        O  0.14825761  0.28008069  0.89968719    -0.79900
O358        O  0.04576392  0.28893918  0.83713388    -0.84100
O359        O  0.04732266  0.25507497  0.88637073    -0.78900
O360        O  0.12319152  0.33245957  0.86496478    -0.80700
O361        O  0.12508822  0.22896047  0.88290575    -0.83400
C362        C  0.04205439  0.27333538  0.90410305     0.97300
C363        C  0.04805957  0.31483953  0.83776570     1.04800
O364        O  0.09749118  0.27795000  0.86629474    -1.12400
O365        O  0.12866495  0.24576684  0.82472205    -0.74800
O366        O  0.08618493  0.25541813  0.81236254    -0.78300
O367        O  0.05511816  0.29623903  0.90566631    -0.79000
C368        C  0.10999546  0.24685455  0.80661889     0.96200
O369        O  0.08624270  0.21919899  0.86119174    -0.77000
O370        O  0.14623832  0.29910896  0.84291376    -0.82200
C371        C  0.13820596  0.29311155  0.91981608     0.98900
C372        C  0.14147969  0.32423526  0.84789668     1.04800
O373        O  0.11432456  0.30368058  0.91889484    -0.77800
C374        C  0.10616009  0.21235569  0.87645075     1.03100
Fe375      Fe  0.09376992  0.97067660  0.81978877     1.65800
Fe376      Fe  0.10161021  0.95683404  0.88648330     1.73200
Fe377      Fe  0.13291074  0.91593170  0.83958334     1.54400
O378        O  0.10501834  0.90075668  0.81127928    -0.81500
O379        O  0.13814243  0.94180512  0.90198765    -0.79900
O380        O  0.08414230  0.93801465  0.79488113    -0.84100
O381        O  0.13084301  0.97562550  0.80106330    -0.78900
O382        O  0.11304500  0.89157582  0.86967457    -0.80700
O383        O  0.11940068  0.99452878  0.88223789    -0.83400
C384        C  0.15136847  0.96027929  0.79660746     0.97300
C385        C  0.08846952  0.91230445  0.79480612     1.04800
O386        O  0.10967280  0.94771409  0.84837606    -1.12400
O387        O  0.06338497  0.97417566  0.87895628    -0.74800
O388        O  0.05456543  0.96804009  0.83512447    -0.78300
O389        O  0.15462434  0.93706828  0.80849976    -0.79000
C390        C  0.04702367  0.97530740  0.85878796     0.96200
O391        O  0.10138323  0.00629465  0.84186304    -0.77000
O392        O  0.08349788  0.91959864  0.89137499    -0.82200
C393        C  0.16089854  0.93405232  0.89208589     0.98900
C394        C  0.09273425  0.89585824  0.88585685     1.04800
O395        O  0.16354745  0.92752015  0.86702503    -0.77800
C396        C  0.11320557  0.01236794  0.86431876     1.03100
Fe397      Fe  0.93535708  0.74995401  0.66165212     1.65800
Fe398      Fe  0.87012778  0.76970446  0.65658562     1.73200
Fe399      Fe  0.91952732  0.80725573  0.62542619     1.54400
O400        O  0.94735019  0.81989711  0.65482147    -0.81500
O401        O  0.85571746  0.78665035  0.62024644    -0.79900
O402        O  0.96415921  0.78002849  0.66988661    -0.84100
O403        O  0.95088285  0.74344990  0.62359284    -0.78900
O404        O  0.89036725  0.83327690  0.64465259    -0.80700
O405        O  0.87010774  0.73226142  0.63813670    -0.83400
C406        C  0.95974455  0.76044369  0.60604184     0.97300
C407        C  0.96417904  0.80611731  0.66918430     1.04800
O408        O  0.90850632  0.77561788  0.64755875    -1.12400
O409        O  0.87761708  0.75112082  0.69448797    -0.74800
O410        O  0.92224279  0.75432946  0.70125416    -0.78300
O411        O  0.95096737  0.78522990  0.60483756    -0.79000
C412        C  0.89844790  0.74873091  0.70993129     0.96200
O413        O  0.90941003  0.71668060  0.65565504    -0.77000
O414        O  0.86936255  0.80662116  0.67563453    -0.82200
C415        C  0.86615000  0.79320063  0.59726387     0.98900
C416        C  0.87562383  0.83002935  0.66616215     1.04800
O417        O  0.89184912  0.79705811  0.59429486    -0.77800
C418        C  0.88602945  0.71280178  0.64468527     1.03100
Fe419      Fe  0.90814059  0.47366459  0.69667897     1.65800
Fe420      Fe  0.89584395  0.47234582  0.62889767     1.73200
Fe421      Fe  0.87367371  0.42050562  0.66959785     1.54400
O422        O  0.90055076  0.40788520  0.70075452    -0.81500
O423        O  0.85467670  0.46787711  0.61995762    -0.79900
O424        O  0.93251715  0.44059855  0.70406913    -0.84100
O425        O  0.87903078  0.45850167  0.72320073    -0.78900
O426        O  0.89955917  0.40161075  0.64110921    -0.80700
O427        O  0.88665232  0.51071347  0.64448388    -0.83400
C428        C  0.85419062  0.45243283  0.71891017     0.97300
C429        C  0.92419237  0.41628818  0.70835373     1.04800
O430        O  0.89259951  0.45540763  0.66470927    -1.12400
O431        O  0.93770910  0.47821306  0.63326246    -0.74800
O432        O  0.94055765  0.49171967  0.67629065    -0.78300
O433        O  0.84676098  0.43908888  0.69769125    -0.79000
C434        C  0.95122247  0.48867852  0.65281860     0.96200
O435        O  0.88378243  0.50725519  0.69007493    -0.77000
O436        O  0.90477554  0.43549564  0.61029609    -0.82200
C437        C  0.83942252  0.44686395  0.62209722     0.98900
C438        C  0.90754912  0.41064029  0.61783869     1.04800
O439        O  0.84495263  0.42741869  0.63864587    -0.77800
C440        C  0.87958405  0.52007308  0.66784259     1.03100
Fe441      Fe  0.01850392  0.30765960  0.40947473     1.65800
Fe442      Fe  0.03641429  0.37369390  0.39922074     1.73200
Fe443      Fe  0.07892057  0.32273258  0.37666589     1.54400
O444        O  0.08891541  0.29642541  0.40846425    -0.81500
O445        O  0.05333121  0.38481515  0.36203325    -0.79900
O446        O  0.04871171  0.28280780  0.42567313    -0.84100
O447        O  0.01801022  0.28611075  0.37385926    -0.78900
O448        O  0.10236683  0.35329205  0.39674156    -0.80700
O449        O  0.00010945  0.36966957  0.37916489    -0.83400
C450        C  0.03575893  0.27941010  0.35616132     0.97300
C451        C  0.07472788  0.28193171  0.42490513     1.04800
O452        O  0.04470710  0.33452402  0.39495961    -1.12400
O453        O  0.01707369  0.36989799  0.43714484    -0.74800
O454        O  0.01609309  0.32566705  0.44724999    -0.78300
O455        O  0.05968246  0.29021024  0.35519243    -0.79000
C456        C  0.01231133  0.35048421  0.45384144     0.96200
O457        O  0.98485160  0.32966653  0.39515258    -0.77000
O458        O  0.07236193  0.37983721  0.41937069    -0.82200
C459        C  0.06408365  0.37283280  0.34161196     0.98900
C460        C  0.09661068  0.37201175  0.41425987     1.04800
O461        O  0.07258619  0.34812900  0.34273148    -0.77800
C462        C  0.98111865  0.35231431  0.38253926     1.03100
Fe463      Fe  0.74832691  0.34008780  0.43630203     1.65800
Fe464      Fe  0.72900514  0.34366309  0.37084641     1.73200
Fe465      Fe  0.68832953  0.37113612  0.41952795     1.54400
O466        O  0.67775089  0.34028530  0.44656057    -0.81500
O467        O  0.70869790  0.37831012  0.35651006    -0.79900
O468        O  0.71828369  0.32791059  0.46393928    -0.84100
O469        O  0.75044673  0.37842608  0.45289709    -0.78900
O470        O  0.66507211  0.35076050  0.38915942    -0.80700
O471        O  0.76428821  0.36604758  0.37156245    -0.83400
C472        C  0.73173517  0.39466126  0.46069412     0.97300
C473        C  0.69215510  0.32709674  0.46382551     1.04800
O474        O  0.72189253  0.35183605  0.40912748    -1.12400
O475        O  0.75086165  0.30748855  0.37805713    -0.74800
O476        O  0.74881366  0.30023938  0.42256444    -0.78300
O477        O  0.70718498  0.39328099  0.45162561    -0.79000
C478        C  0.75444592  0.29197425  0.39870232     0.96200
O479        O  0.78120736  0.35095452  0.41126145    -0.77000
O480        O  0.69404906  0.32114153  0.36937166    -0.82200
C481        C  0.70113524  0.40090215  0.36717500     0.98900
C482        C  0.67003302  0.32989778  0.37397841     1.04800
O483        O  0.69677590  0.40335114  0.39277114    -0.77800
C484        C  0.78401890  0.36280873  0.38807994     1.03100
Fe485      Fe  0.85729071  0.05176865  0.26857866     1.65800
Fe486      Fe  0.86759462  0.11878515  0.27967241     1.73200
Fe487      Fe  0.88849482  0.07265622  0.32748397     1.54400
O488        O  0.85599363  0.04837766  0.33960007    -0.81500
O489        O  0.90397500  0.13179888  0.29744985    -0.79900
O490        O  0.84272302  0.02838688  0.30079711    -0.84100
O491        O  0.89389335  0.03198550  0.26922893    -0.78900
O492        O  0.86873419  0.10616162  0.34686435    -0.80700
O493        O  0.88968261  0.11067202  0.24524192    -0.83400
C494        C  0.90995653  0.02588168  0.28860379     0.97300
C495        C  0.84195920  0.03061360  0.32671916     1.04800
O496        O  0.87126385  0.08092855  0.29211197    -1.12400
O497        O  0.83043403  0.11243493  0.25899497    -0.74800
O498        O  0.81903658  0.06902015  0.26591724    -0.78300
O499        O  0.90945857  0.03781622  0.31197627    -0.79000
C500        C  0.81311409  0.09285686  0.25755678     0.96200
O501        O  0.87039925  0.07115003  0.23300421    -0.77000
O502        O  0.84571759  0.12831327  0.31382306    -0.82200
C503        C  0.92419893  0.12046933  0.30929283     0.98900
C504        C  0.85082274  0.12364747  0.33885061     1.04800
O505        O  0.92294177  0.09632416  0.31908732    -0.77800
C506        C  0.88531317  0.09196678  0.22776999     1.03100
Fe507      Fe  0.82168061  0.08796958  0.99551022     1.65800
Fe508      Fe  0.88756012  0.09237893  0.97719000     1.73200
Fe509      Fe  0.83875457  0.11820955  0.93557937     1.54400
O510        O  0.81291017  0.08634527  0.92544447    -0.81500
O511        O  0.90137395  0.12827329  0.95813740    -0.79900
O512        O  0.79316854  0.07741065  0.96557688    -0.84100
O513        O  0.80664333  0.12693818  0.99844583    -0.78900
O514        O  0.86953502  0.09811833  0.91227970    -0.80700
O515        O  0.88593889  0.11361660  0.01305937    -0.83400
C516        C  0.79754721  0.14183496  0.97924944     0.97300
C517        C  0.79452930  0.07455557  0.93971583     1.04800
O518        O  0.84927153  0.09980206  0.96942735    -1.12400
O519        O  0.87963455  0.05530247  0.99762737    -0.74800
O520        O  0.83491437  0.04807074  0.99432061    -0.78300
O521        O  0.80584898  0.13952402  0.95446696    -0.79000
C522        C  0.85880672  0.03963929  0.00001990     0.96200
O523        O  0.84671116  0.09636557  0.02895289    -0.77000
O524        O  0.89070225  0.07051437  0.94205940    -0.82200
C525        C  0.89004688  0.15008172  0.94920296     0.98900
C526        C  0.88511049  0.07769433  0.91780945     1.04800
O527        O  0.86458326  0.15128904  0.94359136    -0.77800
C528        C  0.86970871  0.10825041  0.03258643     1.03100
C529        C  0.90248854  0.08029532  0.15305810    -0.22300
C530        C  0.90331062  0.10763109  0.14407565     0.09600
C531        C  0.90410767  0.12924443  0.16317573     0.10000
C532        C  0.90062099  0.12319187  0.19093065    -0.17300
C533        C  0.89595786  0.09601203  0.19974609    -0.27700
C534        C  0.89902466  0.07408849  0.18084023     0.18400
C535        C  0.89705690  0.11293493  0.11516507     0.12300
C536        C  0.90742736  0.15868312  0.15408888    -0.12000
H537        H  0.89948786  0.14004599  0.20543190     0.12600
C538        C  0.89824311  0.04427181  0.18943167    -0.22900
H539        H  0.90240798  0.06383072  0.13805344     0.08300
C540        C  0.91583079  0.10699784  0.09409429     0.04600
C541        C  0.90670361  0.10761896  0.06692426    -0.20100
C542        C  0.87910851  0.11343134  0.06069567    -0.12400
C543        C  0.86083594  0.12111586  0.08184017     0.13300
C544        C  0.87013878  0.12084094  0.10888421    -0.22800
C545        C  0.94514712  0.09946991  0.10036307    -0.05900
H546        H  0.92076646  0.10191410  0.05065228     0.14800
C547        C  0.83163525  0.12958828  0.07615127    -0.16100
H548        H  0.85596001  0.12547198  0.12540952     0.09200
H549        H  0.90388827  0.03038670  0.17223654     0.07000
H550        H  0.87729847  0.03836224  0.19614073     0.08200
H551        H  0.91311713  0.04072872  0.20630185     0.07300
H552        H  0.88996832  0.16487548  0.14088311     0.02100
H553        H  0.92685910  0.16087144  0.14236116     0.02600
H554        H  0.90819929  0.17301279  0.17181039     0.06100
H555        H  0.95721627  0.09589959  0.08136303     0.05100
H556        H  0.94582169  0.08037231  0.11278661    -0.00700
H557        H  0.95503688  0.11642610  0.11199315     0.00800
H558        H  0.82124462  0.13737133  0.09489052     0.04500
H559        H  0.81951471  0.11185830  0.06852262     0.06400
H560        H  0.83156079  0.14626096  0.06068204     0.07300
C561        C  0.78179637  0.21870090  0.41039846    -0.22300
C562        C  0.79381505  0.21335747  0.38491140     0.09600
C563        C  0.79195487  0.23310752  0.36385676     0.10000
C564        C  0.77850469  0.25807664  0.36891034    -0.17300
C565        C  0.76675764  0.26406251  0.39462573    -0.27700
C566        C  0.76828513  0.24375298  0.41565780     0.18400
C567        C  0.80790219  0.18678397  0.38006433     0.12300
C568        C  0.80439990  0.22788355  0.33601865    -0.12000
H569        H  0.77764331  0.27320230  0.35263411     0.12600
C570        C  0.75566425  0.24781964  0.44361662    -0.22900
H571        H  0.78314446  0.20318006  0.42628269     0.08300
C572        C  0.83643294  0.18378778  0.38424892     0.04600
C573        C  0.84994067  0.16052831  0.37363254    -0.20100
C574        C  0.83545945  0.14063118  0.35861706    -0.12400
C575        C  0.80650239  0.14247403  0.35679038     0.13300
C576        C  0.79307632  0.16551208  0.36763037    -0.22800
C577        C  0.85275417  0.20592258  0.39842515    -0.05900
H578        H  0.87213032  0.15921973  0.37481447     0.14800
C579        C  0.78937234  0.12112294  0.34226529    -0.16100
H580        H  0.77110511  0.16772610  0.36479756     0.09200
H581        H  0.76605682  0.26496396  0.45448658     0.07000
H582        H  0.75779344  0.22923036  0.45666969     0.08200
H583        H  0.73339470  0.25218654  0.44151820     0.07300
H584        H  0.79480777  0.20943600  0.32661410     0.02100
H585        H  0.82683233  0.22442922  0.33805755     0.02600
H586        H  0.80125416  0.24551980  0.32190923     0.06100
H587        H  0.87484948  0.20047393  0.39985220     0.05100
H588        H  0.84474338  0.20893929  0.41952715    -0.00700
H589        H  0.85102082  0.22554927  0.38693649     0.00800
H590        H  0.77358116  0.11298975  0.35656602     0.04500
H591        H  0.80167830  0.10341622  0.33490181     0.06400
H592        H  0.77895371  0.13061321  0.32438281     0.07300
C593        C  0.98889042  0.22992310  0.32043615    -0.22300
C594        C  0.00404509  0.20558842  0.32265279     0.09600
C595        C  0.03217437  0.20702821  0.32954772     0.10000
C596        C  0.04366755  0.23259906  0.33713427    -0.17300
C597        C  0.02755346  0.25660222  0.33769172    -0.27700
C598        C  0.00032499  0.25538712  0.32750132     0.18400
C599        C  0.98889286  0.17918009  0.31966743     0.12300
C600        C  0.04972488  0.18156307  0.32956836    -0.12000
H601        H  0.06452837  0.23338602  0.34480871     0.12600
C602        C  0.98234099  0.28050716  0.32501126    -0.22900
H603        H  0.96751228  0.22889865  0.31430031     0.08300
C604        C  0.97695475  0.16608975  0.34269359     0.04600
C605        C  0.95772575  0.14483557  0.33872555    -0.20100
C606        C  0.94959981  0.13693929  0.31229448    -0.12400
C607        C  0.96286143  0.14883647  0.28931942     0.13300
C608        C  0.98227100  0.16986294  0.29330452    -0.22800
C609        C  0.98300004  0.17584067  0.37139869    -0.05900
H610        H  0.94743322  0.13584281  0.35628926     0.14800
C611        C  0.95664031  0.14013128  0.26032926    -0.16100
H612        H  0.99137414  0.17992124  0.27566182     0.09200
H613        H  0.96461123  0.27869133  0.33923362     0.07000
H614        H  0.97451803  0.28210120  0.30370313     0.08200
H615        H  0.99350891  0.29987091  0.32955161     0.07300
H616        H  0.04980504  0.17233460  0.30874599     0.02100
H617        H  0.04153614  0.16627201  0.34432232     0.02600
H618        H  0.07127666  0.18627090  0.33534343     0.06100
H619        H  0.97152509  0.16374687  0.38696773     0.05100
H620        H  0.97700737  0.19775800  0.37361249    -0.00700
H621        H  0.00521595  0.17372748  0.37583700     0.00800
H622        H  0.94761051  0.15765357  0.24888216     0.04500
H623        H  0.94227055  0.12248174  0.25930455     0.06400
H624        H  0.97594887  0.13371631  0.25003401     0.07300
C625        C  0.91601538  0.39155760  0.36494693    -0.22300
C626        C  0.89718686  0.36992145  0.36504495     0.09600
C627        C  0.90641787  0.34247798  0.36618688     0.10000
C628        C  0.93438883  0.33736203  0.36971455    -0.17300
C629        C  0.95322309  0.35905603  0.37260501    -0.27700
C630        C  0.94405836  0.38660974  0.36881107     0.18400
C631        C  0.86798490  0.37609290  0.36917029     0.12300
C632        C  0.88658122  0.31863282  0.36543031    -0.12000
H633        H  0.94132320  0.31628379  0.37173440     0.12600
C634        C  0.96298181  0.41115852  0.37045503    -0.22900
H635        H  0.90843864  0.41249183  0.36381208     0.08300
C636        C  0.85805013  0.38144300  0.39580048     0.04600
C637        C  0.82992666  0.37940112  0.40082256    -0.20100
C638        C  0.81171154  0.37178533  0.37991984    -0.12400
C639        C  0.82145814  0.36929419  0.35259291     0.13300
C640        C  0.84968077  0.37162932  0.34759549    -0.22800
C641        C  0.87724836  0.38742911  0.41930357    -0.05900
H642        H  0.82232730  0.38207939  0.42155232     0.14800
C643        C  0.80284284  0.36215199  0.32894846    -0.16100
H644        H  0.85774871  0.36785087  0.32721807     0.09200
H645        H  0.97272832  0.41214284  0.39099450     0.07000
H646        H  0.95182499  0.43082467  0.36731793     0.08200
H647        H  0.97893322  0.40976728  0.35423497     0.07300
H648        H  0.87513402  0.31877609  0.34577407     0.02100
H649        H  0.87181850  0.32021932  0.38272135     0.02600
H650        H  0.89729972  0.29854966  0.36711913     0.06100
H651        H  0.86595433  0.39053051  0.43885617     0.05100
H652        H  0.88908497  0.40645774  0.41497059    -0.00700
H653        H  0.89168928  0.37000747  0.42215959     0.00800
H654        H  0.81435888  0.36035667  0.30936149     0.04500
H655        H  0.78721086  0.37852880  0.32624932     0.06400
H656        H  0.79258533  0.34211321  0.33280293     0.07300
C657        C  0.78242149  0.46129697  0.56992989    -0.22300
C658        C  0.77878393  0.43496442  0.55876663     0.09600
C659        C  0.79291219  0.41247796  0.57040086     0.10000
C660        C  0.81073339  0.41690677  0.59255641    -0.17300
C661        C  0.81597041  0.44348695  0.60269157    -0.27700
C662        C  0.80097165  0.46593160  0.59163781     0.18400
C663        C  0.76296705  0.43152628  0.53291828     0.12300
C664        C  0.79039154  0.38395961  0.55846260    -0.12000
H665        H  0.82201876  0.39960139  0.60082377     0.12600
C666        C  0.80429579  0.49476275  0.60252054    -0.22900
H667        H  0.77152426  0.47845175  0.56086212     0.08300
C668        C  0.73576419  0.42143294  0.53258195     0.04600
C669        C  0.72414634  0.41276410  0.50756795    -0.20100
C670        C  0.73930376  0.41386303  0.48304340    -0.12400
C671        C  0.76535402  0.42687196  0.48314391     0.13300
C672        C  0.77689220  0.43536079  0.50807513    -0.22800
C673        C  0.71951949  0.41879570  0.55872267    -0.05900
H674        H  0.70420921  0.40282537  0.50761318     0.14800
C675        C  0.78197822  0.43104279  0.45737770    -0.16100
H676        H  0.79756309  0.44367686  0.50828841     0.09200
H677        H  0.78938365  0.50915925  0.59302693     0.07000
H678        H  0.82515785  0.50263628  0.59787185     0.08200
H679        H  0.80080312  0.49495448  0.62501589     0.07300
H680        H  0.79719397  0.38409298  0.53673342     0.02100
H681        H  0.76876319  0.37688576  0.55949876     0.02600
H682        H  0.80323919  0.36884579  0.56969419     0.06100
H683        H  0.69860745  0.41051960  0.55488595     0.05100
H684        H  0.71742090  0.43933991  0.56844390    -0.00700
H685        H  0.73009356  0.40475689  0.57317495     0.00800
H686        H  0.78740714  0.45313546  0.45533783     0.04500
H687        H  0.77060914  0.42509635  0.43859527     0.06400
H688        H  0.80117334  0.41878660  0.45852179     0.07300
C689        C  0.98811672  0.38661749  0.51936301    -0.22300
C690        C  0.97211896  0.36580648  0.53125250     0.09600
C691        C  0.97098662  0.33971020  0.51885267     0.10000
C692        C  0.98523212  0.33520096  0.49427692    -0.17300
C693        C  0.00031923  0.35634103  0.48137939    -0.27700
C694        C  0.00224427  0.38231473  0.49456468     0.18400
C695        C  0.95460579  0.37271024  0.55511632     0.12300
C696        C  0.95438189  0.31675984  0.53138050    -0.12000
H697        H  0.98366029  0.31519364  0.48460157     0.12600
C698        C  0.01909423  0.40559400  0.48294297    -0.22900
H699        H  0.98882905  0.40662436  0.52916781     0.08300
C700        C  0.96511863  0.37425742  0.58201832     0.04600
C701        C  0.94814159  0.38395698  0.60327969    -0.20100
C702        C  0.92111599  0.39239835  0.59795099    -0.12400
C703        C  0.91024168  0.38932377  0.57123568     0.13300
C704        C  0.92711613  0.37945495  0.55019535    -0.22800
C705        C  0.99441500  0.36651629  0.58800990    -0.05900
H706        H  0.95657221  0.38681823  0.62364438     0.14800
C707        C  0.88116256  0.39714532  0.56408014    -0.16100
H708        H  0.91905144  0.37796744  0.52953058     0.09200
H709        H  0.04056620  0.39868211  0.47957716     0.07000
H710        H  0.01967339  0.42354263  0.49703172     0.08200
H711        H  0.01007717  0.41277295  0.46334255     0.07300
H712        H  0.93240256  0.32270036  0.53235245     0.02100
H713        H  0.96190847  0.31250239  0.55242603     0.02600
H714        H  0.95596122  0.29748411  0.51925274     0.06100
H715        H  0.99934079  0.36881677  0.61011740     0.05100
H716        H  0.00857088  0.37992546  0.57617525    -0.00700
H717        H  0.99795204  0.34474481  0.58211031     0.00800
H718        H  0.88132976  0.41400989  0.54874034     0.04500
H719        H  0.86920963  0.40403491  0.58213435     0.06400
H720        H  0.87038919  0.37908116  0.55520942     0.07300
C721        C  0.88350539  0.63587132  0.63842324    -0.22300
C722        C  0.85820050  0.63069720  0.65112551     0.09600
C723        C  0.84058307  0.65244109  0.65807067     0.10000
C724        C  0.84936630  0.67938488  0.65321006    -0.17300
C725        C  0.87573869  0.68466769  0.64266497    -0.27700
C726        C  0.89277725  0.66271635  0.63445549     0.18400
C727        C  0.85312787  0.60239739  0.65988546     0.12300
C728        C  0.81329012  0.64721239  0.67162134    -0.12000
H729        H  0.83645641  0.69638469  0.65960637     0.12600
C730        C  0.92077232  0.66737482  0.62198203    -0.22900
H731        H  0.89674677  0.61873292  0.63314102     0.08300
C732        C  0.84440374  0.58259685  0.64084163     0.04600
C733        C  0.85090322  0.55506321  0.64554487    -0.20100
C734        C  0.86652986  0.54730903  0.66848493    -0.12400
C735        C  0.87217066  0.56684474  0.68925413     0.13300
C736        C  0.86499965  0.59430857  0.68472435    -0.22800
C737        C  0.83007308  0.59080608  0.61475295    -0.05900
H738        H  0.84562381  0.53984549  0.63018182     0.14800
C739        C  0.88793280  0.55966443  0.71486041    -0.16100
H740        H  0.87144990  0.60997093  0.69919875     0.09200
H741        H  0.91896397  0.68102456  0.60384081     0.07000
H742        H  0.93030636  0.64777102  0.61518367     0.08200
H743        H  0.93483811  0.67682598  0.63716827     0.07300
H744        H  0.81643303  0.63634768  0.69137919     0.02100
H745        H  0.80027520  0.63433079  0.65806696     0.02600
H746        H  0.80214339  0.66668092  0.67586641     0.06100
H747        H  0.82479301  0.57262467  0.60199915     0.05100
H748        H  0.84349578  0.60452322  0.60242872    -0.00700
H749        H  0.81075641  0.60180793  0.61977212     0.00800
H750        H  0.90852061  0.55157447  0.70932224     0.04500
H751        H  0.87649578  0.54401839  0.72687285     0.06400
H752        H  0.89098113  0.57786388  0.72829987     0.07300
C753        C  0.06675749  0.85881072  0.74173600    -0.22300
C754        C  0.03950114  0.86681782  0.73723390     0.09600
C755        C  0.02842868  0.88922565  0.75181873     0.10000
C756        C  0.04503458  0.90346628  0.77040313    -0.17300
C757        C  0.07237512  0.89557969  0.77517883    -0.27700
C758        C  0.08340117  0.87287699  0.76066727     0.18400
C759        C  0.02204412  0.85035845  0.71871851     0.12300
C760        C  0.99895796  0.89788289  0.74801744    -0.12000
H761        H  0.03643714  0.92068942  0.78162831     0.12600
C762        C  0.11270891  0.86380537  0.76443812    -0.22900
H763        H  0.07489557  0.84134282  0.73055880     0.08300
C764        C  0.01888013  0.85704196  0.69076931     0.04600
C765        C  0.99988180  0.84225475  0.67486617    -0.20100
C766        C  0.98435258  0.82081153  0.68636418    -0.12400
C767        C  0.98784149  0.81406385  0.71440450     0.13300
C768        C  0.00675312  0.82889708  0.73015175    -0.22800
C769        C  0.03541603  0.87982662  0.67791336    -0.05900
H770        H  0.99719099  0.84735214  0.65340839     0.14800
C771        C  0.97073618  0.79225772  0.72830123    -0.16100
H772        H  0.00915353  0.82426119  0.75175548     0.09200
H773        H  0.11810421  0.84655437  0.75050394     0.07000
H774        H  0.11594754  0.85663575  0.78577375     0.08200
H775        H  0.12676635  0.88117606  0.75992225     0.07300
H776        H  0.98505736  0.88066524  0.75362229     0.02100
H777        H  0.99534316  0.90363878  0.72631218     0.02600
H778        H  0.99362468  0.91584301  0.76105876     0.06100
H779        H  0.03049294  0.88234738  0.65583362     0.05100
H780        H  0.05764457  0.87513449  0.67975036    -0.00700
H781        H  0.03105488  0.89958162  0.68845802     0.00800
H782        H  0.97519151  0.77177366  0.71933155     0.04500
H783        H  0.94860831  0.79715903  0.72589841     0.06400
H784        H  0.97514328  0.79097889  0.75059786     0.07300
C785        C  0.92195665  0.01820692  0.88730637    -0.22300
C786        C  0.94352443  0.03207439  0.87432572     0.09600
C787        C  0.94104671  0.06051344  0.86884789     0.10000
C788        C  0.91872904  0.07513638  0.87994289    -0.17300
C789        C  0.89906935  0.06174898  0.89620494    -0.27700
C790        C  0.89956172  0.03268847  0.89804118     0.18400
C791        C  0.96977128  0.01719333  0.87033707     0.12300
C792        C  0.96245662  0.07551178  0.85226810    -0.12000
H793        H  0.91813174  0.09730245  0.87808509     0.12600
C794        C  0.87750347  0.01665448  0.91274760    -0.22900
H795        H  0.92347075  0.99621850  0.89071241     0.08300
C796        C  0.99141844  0.02026586  0.88930243     0.04600
C797        C  0.01591850  0.00577105  0.88520734    -0.20100
C798        C  0.01931555  0.98765883  0.86294241    -0.12400
C799        C  0.99687293  0.98340395  0.84482196     0.13300
C800        C  0.97242011  0.99835011  0.84876892    -0.22800
C801        C  0.98848665  0.03831886  0.91432720    -0.05900
H802        H  0.03271878  0.00903331  0.89939381     0.14800
C803        C  0.99808197  0.96277937  0.82175589    -0.16100
H804        H  0.95525000  0.99538533  0.83496161     0.09200
H805        H  0.88641666  0.00611812  0.93085219     0.07000
H806        H  0.86881284  0.00095901  0.89866366     0.08200
H807        H  0.86030200  0.02990566  0.91969167     0.07300
H808        H  0.96374500  0.06623974  0.83150884     0.02100
H809        H  0.98286005  0.07404189  0.86220580     0.02600
H810        H  0.95734870  0.09765304  0.84994889     0.06100
H811        H  0.00719524  0.03784575  0.92731860     0.05100
H812        H  0.97093002  0.03107297  0.92694892    -0.00700
H813        H  0.98485564  0.05997719  0.90827423     0.00800
H814        H  0.97794730  0.96066047  0.81128868     0.04500
H815        H  0.00381125  0.94225299  0.82992534     0.06400
H816        H  0.01322392  0.96939521  0.80608800     0.07300
C817        C  0.96858432  0.25991788  0.92247517    -0.22300
C818        C  0.97159921  0.23586461  0.93803992     0.09600
C819        C  0.99797427  0.22852521  0.94757386     0.10000
C820        C  0.02094691  0.24419629  0.93958381    -0.17300
C821        C  0.01829331  0.26688575  0.92195318    -0.27700
C822        C  0.99158245  0.27545896  0.91423379     0.18400
C823        C  0.94814074  0.21621537  0.94008223     0.12300
C824        C  0.00209192  0.20302424  0.96461129    -0.12000
H825        H  0.04135243  0.23710481  0.94492171     0.12600
C826        C  0.98682233  0.29946930  0.89529367    -0.22900
H827        H  0.94836656  0.26553587  0.91508268     0.08300
C828        C  0.92959693  0.21607770  0.96236530     0.04600
C829        C  0.90971246  0.19500440  0.96428736    -0.20100
C830        C  0.90787784  0.17429903  0.94423966    -0.12400
C831        C  0.92552790  0.17541950  0.92121917     0.13300
C832        C  0.94544906  0.19623070  0.91951926    -0.22800
C833        C  0.93112898  0.23787583  0.98420762    -0.05900
H834        H  0.89615875  0.19417220  0.98190830     0.14800
C835        C  0.92407302  0.15482831  0.89817981    -0.16100
H836        H  0.95945363  0.19653477  0.90221860     0.09200
H837        H  0.97284092  0.31443792  0.90532789     0.07000
H838        H  0.97717636  0.29212109  0.87601454     0.08200
H839        H  0.00601570  0.31050440  0.88996388     0.07300
H840        H  0.99525067  0.18461391  0.95299686     0.02100
H841        H  0.98999771  0.20461525  0.98383745     0.02600
H842        H  0.02399521  0.20008787  0.97019449     0.06100
H843        H  0.91514775  0.23485457  0.00018937     0.05100
H844        H  0.92802775  0.25843640  0.97481651    -0.00700
H845        H  0.95153780  0.23733814  0.99427814     0.00800
H846        H  0.92063836  0.16577857  0.87851291     0.04500
H847        H  0.90710774  0.13988196  0.90076329     0.06400
H848        H  0.94370875  0.14330785  0.89689158     0.07300
C849        C  0.00260121  0.37006193  0.80544299    -0.22300
C850        C  0.99458677  0.35652689  0.78136028     0.09600
C851        C  0.00464165  0.33005688  0.77558799     0.10000
C852        C  0.02232295  0.31744334  0.79427201    -0.17300
C853        C  0.03035684  0.33063817  0.81869777    -0.27700
C854        C  0.02047444  0.35747997  0.82425978     0.18400
C855        C  0.97601034  0.37055655  0.76204973     0.12300
C856        C  0.99652738  0.31503895  0.74978743    -0.12000
H857        H  0.02998935  0.29703279  0.78965056     0.12600
C858        C  0.02794674  0.37268857  0.85010926    -0.22900
H859        H  0.99475227  0.39052498  0.80949644     0.08300
C860        C  0.94726036  0.36969681  0.76536448     0.04600
C861        C  0.93055263  0.38354248  0.74648410    -0.20100
C862        C  0.94209073  0.39801338  0.72438827    -0.12400
C863        C  0.97087376  0.39735585  0.72021864     0.13300
C864        C  0.98748896  0.38403848  0.73944554    -0.22800
C865        C  0.93434112  0.35440680  0.78892861    -0.05900
H866        H  0.90851010  0.38398766  0.74960094     0.14800
C867        C  0.98472997  0.40978331  0.69545320    -0.16100
H868        H  0.00958012  0.38384337  0.73661726     0.09200
H869        H  0.01731817  0.39284960  0.85149395     0.07000
H870        H  0.05036725  0.37675325  0.85052952     0.08200
H871        H  0.02195444  0.36032151  0.86828805     0.07300
H872        H  0.00326132  0.32692614  0.73155788     0.02100
H873        H  0.97388506  0.31245477  0.74916543     0.02600
H874        H  0.00603222  0.29431153  0.74861746     0.06100
H875        H  0.91157849  0.35571576  0.78842386     0.05100
H876        H  0.94152389  0.36324622  0.80864317    -0.00700
H877        H  0.94019135  0.33235952  0.78796862     0.00800
H878        H  0.99819127  0.42702882  0.70196389     0.04500
H879        H  0.97006617  0.41739281  0.67986749     0.06400
H880        H  0.99751530  0.39389310  0.68521780     0.07300
C881        C  0.12419865  0.08906344  0.85781348    -0.22300
C882        C  0.11891974  0.09729134  0.88478383     0.09600
C883        C  0.11403235  0.07768121  0.90533527     0.10000
C884        C  0.11384908  0.04984882  0.89820352    -0.17300
C885        C  0.11776398  0.04148801  0.87086957    -0.27700
C886        C  0.12355264  0.06134134  0.85045580     0.18400
C887        C  0.11612155  0.12678997  0.88991117     0.12300
C888        C  0.10857660  0.08619396  0.93452278    -0.12000
H889        H  0.10929629  0.03466719  0.91383107     0.12600
C890        C  0.12923605  0.05369229  0.82103965    -0.22900
H891        H  0.12787746  0.10458770  0.84226969     0.08300
C892        C  0.13918168  0.14417478  0.88965692     0.04600
C893        C  0.13517942  0.17249506  0.88741788    -0.20100
C894        C  0.10862444  0.18350545  0.88495847    -0.12400
C895        C  0.08545672  0.16611767  0.88801616     0.13300
C896        C  0.08960937  0.13779851  0.89039717    -0.22800
C897        C  0.16789912  0.13271805  0.89073458    -0.05900
H898        H  0.15294728  0.18583116  0.88570746     0.14800
C899        C  0.05641345  0.17696175  0.88850266    -0.16100
H900        H  0.07209703  0.12400881  0.89090944     0.09200
H901        H  0.13571737  0.07177276  0.80870017     0.07000
H902        H  0.11053002  0.04514914  0.81127361     0.08200
H903        H  0.14602095  0.03837438  0.82031359     0.07300
H904        H  0.08978067  0.09904662  0.93553799     0.02100
H905        H  0.12627819  0.09822009  0.94240912     0.02600
H906        H  0.10550564  0.06811765  0.94809985     0.06100
H907        H  0.18359833  0.14930391  0.89082980     0.05100
H908        H  0.17178410  0.11944075  0.87263653    -0.00700
H909        H  0.17043649  0.12035583  0.90969087     0.00800
H910        H  0.05053988  0.18499694  0.86807138     0.04500
H911        H  0.05453963  0.19347319  0.90413362     0.06400
H912        H  0.04141157  0.16057397  0.89380793     0.07300
C913        C  0.20379760  0.36536055  0.82849403    -0.22300
C914        C  0.20320564  0.36186556  0.79993955     0.09600
C915        C  0.17940091  0.35114108  0.78743708     0.10000
C916        C  0.15744255  0.34244857  0.80394412    -0.17300
C917        C  0.15891619  0.34374721  0.83267731    -0.27700
C918        C  0.18200231  0.35626250  0.84508176     0.18400
C919        C  0.22872811  0.36675661  0.78398425     0.12300
C920        C  0.17763443  0.34780241  0.75678714    -0.12000
H921        H  0.13995310  0.33240855  0.79448527     0.12600
C922        C  0.18524893  0.35843923  0.87570948    -0.22900
H923        H  0.22210840  0.37368406  0.83804180     0.08300
C924        C  0.23803666  0.39342835  0.77774822     0.04600
C925        C  0.26323714  0.39679901  0.76411252    -0.20100
C926        C  0.27965779  0.37408190  0.75660669    -0.12400
C927        C  0.26955673  0.34716232  0.76208666     0.13300
C928        C  0.24432133  0.34399234  0.77575295    -0.22800
C929        C  0.22134421  0.41831048  0.78550804    -0.05900
H930        H  0.27042053  0.41748561  0.76000276     0.14800
C931        C  0.28487677  0.32152448  0.75374768    -0.16100
H932        H  0.23682857  0.32353715  0.78053740     0.09200
H933        H  0.18814146  0.38033908  0.88150733     0.07000
H934        H  0.20353403  0.34654271  0.88231355     0.08200
H935        H  0.16720201  0.35054012  0.88702897     0.07300
H936        H  0.19370921  0.33336577  0.74952257     0.02100
H937        H  0.18059205  0.36807403  0.74673613     0.02600
H938        H  0.15738268  0.33948941  0.75037427     0.06100
H939        H  0.23131002  0.43769900  0.77870103     0.05100
H940        H  0.21884405  0.41925502  0.80810151    -0.00700
H941        H  0.20078282  0.41704907  0.77577349     0.00800
H942        H  0.27286543  0.30259019  0.75812838     0.04500
H943        H  0.30438933  0.31991412  0.76535436     0.06400
H944        H  0.28908866  0.32195031  0.73137500     0.07300
C945        C  0.18229586  0.32497199  0.97616298    -0.22300
C946        C  0.20031575  0.30315411  0.98183769     0.09600
C947        C  0.19460126  0.27692704  0.97081211     0.10000
C948        C  0.17298060  0.27388158  0.95192500    -0.17300
C949        C  0.15613899  0.29620324  0.94447195    -0.27700
C950        C  0.16005923  0.32175096  0.95790492     0.18400
C951        C  0.22672557  0.30914449  0.99625135     0.12300
C952        C  0.21135031  0.25218473  0.97894167    -0.12000
H953        H  0.16968760  0.25406288  0.94227151     0.12600
C954        C  0.14186712  0.34606637  0.95203129    -0.22900
H955        H  0.18645915  0.34498169  0.98504926     0.08300
C956        C  0.25123141  0.31278267  0.98115183     0.04600
C957        C  0.27528666  0.32089175  0.99474844    -0.20100
C958        C  0.27542283  0.32743327  0.02288522    -0.12400
C959        C  0.25100836  0.32324184  0.03816830     0.13300
C960        C  0.22705752  0.31376756  0.02471503    -0.22800
C961        C  0.25161934  0.31043860  0.95027876    -0.05900
H962        H  0.29373145  0.32441099  0.98277043     0.14800
C963        C  0.24953840  0.33054979  0.06811916    -0.16100
H964        H  0.20814629  0.31128178  0.03617660     0.09200
H965        H  0.14271803  0.35131204  0.92993134     0.07000
H966        H  0.14823707  0.36452536  0.96385524     0.08200
H967        H  0.12038361  0.34110209  0.95784105     0.07300
H968        H  0.20968163  0.24904118  0.00141868     0.02100
H969        H  0.23326936  0.25510041  0.97357629     0.02600
H970        H  0.20402179  0.23320053  0.96858803     0.06100
H971        H  0.27223130  0.31508506  0.94166200     0.05100
H972        H  0.23681454  0.32526893  0.94131408    -0.00700
H973        H  0.24596774  0.28937810  0.94371336     0.00800
H974        H  0.25412555  0.35275357  0.07095858     0.04500
H975        H  0.26463915  0.31809426  0.07975467     0.06400
H976        H  0.22883620  0.32646486  0.07679179     0.07300
C977        C  0.38337881  0.34397743  0.84974249    -0.22300
C978        C  0.38512559  0.36717296  0.86651892     0.09600
C979        C  0.38711751  0.39367498  0.85505449     0.10000
C980        C  0.38576336  0.39652142  0.82667987    -0.17300
C981        C  0.38208177  0.37351077  0.80971835    -0.27700
C982        C  0.38169812  0.34675099  0.82127369     0.18400
C983        C  0.38127462  0.36392211  0.89602681     0.12300
C984        C  0.38923659  0.41900186  0.87281724    -0.12000
H985        H  0.38630052  0.41693991  0.81777008     0.12600
C986        C  0.37770471  0.32120821  0.80417248    -0.22900
H987        H  0.38182947  0.32381104  0.85910151     0.08300
C988        C  0.35462221  0.36331912  0.90720041     0.04600
C989        C  0.35143496  0.36631036  0.93541746    -0.20100
C990        C  0.37428261  0.37021346  0.95247720    -0.12400
C991        C  0.40116726  0.36860207  0.94134894     0.13300
C992        C  0.40424274  0.36541971  0.91304046    -0.22800
C993        C  0.32955120  0.36096508  0.88922938    -0.05900
H994        H  0.33091235  0.36678278  0.94405565     0.14800
C995        C  0.42664850  0.37184001  0.95860505    -0.16100
H996        H  0.42454732  0.36570048  0.90390298     0.09200
H997        H  0.35814034  0.32261431  0.79258770     0.07000
H998        H  0.37677141  0.30236203  0.81700452     0.08200
H999        H  0.39516247  0.31876399  0.78973264     0.07300
H1000       H  0.40813105  0.41795344  0.88546921     0.02100
H1001       H  0.37105502  0.42040228  0.88650131     0.02600
H1002       H  0.39018782  0.43811918  0.86039047     0.06100
H1003       H  0.31027701  0.36113971  0.90143056     0.05100
H1004       H  0.33028265  0.34138649  0.87753902    -0.00700
H1005       H  0.32883612  0.37848372  0.87465686     0.00800
H1006       H  0.42783667  0.35491670  0.97382421     0.04500
H1007       H  0.42633083  0.39201907  0.96927383     0.06400
H1008       H  0.44564807  0.37099558  0.94601221     0.07300
C1009       C  0.83685635  0.51486458  0.82851964    -0.22300
C1010       C  0.81397352  0.50960633  0.81180641     0.09600
C1011       C  0.78866770  0.52220033  0.81815106     0.10000
C1012       C  0.78760707  0.54211736  0.83904841    -0.17300
C1013       C  0.81097488  0.54886693  0.85460643    -0.27700
C1014       C  0.83558424  0.53410292  0.85009277     0.18400
C1015       C  0.81798638  0.49345621  0.78614523     0.12300
C1016       C  0.76283105  0.51453689  0.80296935    -0.12000
H1017       H  0.76854108  0.55295508  0.84290247     0.12600
C1018       C  0.86089008  0.53955111  0.86696527    -0.22900
H1019       H  0.85613801  0.50475805  0.82385921     0.08300
C1020       C  0.82172382  0.50694471  0.76073092     0.04600
C1021       C  0.82909571  0.49153426  0.73751502    -0.20100
C1022       C  0.83453215  0.46323521  0.73927969    -0.12400
C1023       C  0.82996827  0.44958675  0.76446392     0.13300
C1024       C  0.82134827  0.46479339  0.78751985    -0.22800
C1025       C  0.82063670  0.53790716  0.75855280    -0.05900
H1026       H  0.83360431  0.50218288  0.71850123     0.14800
C1027       C  0.83565996  0.41936027  0.76796102    -0.16100
H1028       H  0.81877109  0.45446757  0.80704450     0.09200
H1029       H  0.86705148  0.56143726  0.86512613     0.07000
H1030       H  0.87846629  0.52665911  0.86022496     0.08200
H1031       H  0.85664995  0.53473286  0.88879999     0.07300
H1032       H  0.75868173  0.49225787  0.80578843     0.02100
H1033       H  0.76495739  0.51878918  0.78076374     0.02600
H1034       H  0.74478400  0.52616679  0.81068257     0.06100
H1035       H  0.82492356  0.54507197  0.73735868     0.05100
H1036       H  0.83624907  0.54717966  0.77232744    -0.00700
H1037       H  0.80008106  0.54566821  0.76439575     0.00800
H1038       H  0.85221034  0.41645053  0.78332088     0.04500
H1039       H  0.84208372  0.40937496  0.74853551     0.06400
H1040       H  0.81678188  0.40884185  0.77527657     0.07300
C1041       C  0.88377233  0.66131383  0.80803684    -0.22300
C1042       C  0.88736605  0.68962217  0.81221419     0.09600
C1043       C  0.88330390  0.70079192  0.83859503     0.10000
C1044       C  0.87339139  0.68377654  0.85966236    -0.17300
C1045       C  0.86722021  0.65599215  0.85476435    -0.27700
C1046       C  0.87357915  0.64435643  0.82895373     0.18400
C1047       C  0.89150917  0.70743884  0.78789408     0.12300
C1048       C  0.88821210  0.73087229  0.84412290    -0.12000
H1049       H  0.86804014  0.69276147  0.87929538     0.12600
C1050       C  0.86762102  0.61470787  0.82210650    -0.22900
H1051       H  0.88702377  0.65276317  0.78775348     0.08300
C1052       C  0.91684424  0.70885200  0.77409814     0.04600
C1053       C  0.91867961  0.72371411  0.74950765    -0.20100
C1054       C  0.89559015  0.73684055  0.73796611    -0.12400
C1055       C  0.87038592  0.73626728  0.75258878     0.13300
C1056       C  0.86877673  0.72159117  0.77735103    -0.22800
C1057       C  0.94182398  0.69442254  0.78518825    -0.05900
H1058       H  0.93812590  0.72405790  0.73869545     0.14800
C1059       C  0.84507484  0.75096298  0.74251612    -0.16100
H1060       H  0.84938031  0.72040352  0.78822381     0.09200
H1061       H  0.88684005  0.60443067  0.81540039     0.07000
H1062       H  0.85239515  0.61364248  0.80521153     0.08200
H1063       H  0.85933007  0.60308636  0.83977980     0.07300
H1064       H  0.87434419  0.74358872  0.83131084     0.02100
H1065       H  0.90985755  0.73611977  0.83921078     0.02600
H1066       H  0.88437441  0.73615983  0.86594524     0.06100
H1067       H  0.96016826  0.69796551  0.77210569     0.05100
H1068       H  0.93806109  0.67192520  0.78613913    -0.00700
H1069       H  0.94642489  0.70218031  0.80609528     0.00800
H1070       H  0.82809029  0.74997984  0.75770380     0.04500
H1071       H  0.83748441  0.74125785  0.72338383     0.06400
H1072       H  0.84983596  0.77299888  0.73881686     0.07300
C1073       C  0.46716950  0.55876399  0.78411089    -0.22300
C1074       C  0.44162494  0.54591591  0.78064901     0.09600
C1075       C  0.41860534  0.55587902  0.79529295     0.10000
C1076       C  0.42179860  0.57801564  0.81357647    -0.17300
C1077       C  0.44758166  0.59003934  0.81802391    -0.27700
C1078       C  0.47045816  0.58067367  0.80268808     0.18400
C1079       C  0.43958992  0.52048831  0.76376743     0.12300
C1080       C  0.39092361  0.54226011  0.79261187    -0.12000
H1081       H  0.40444581  0.58481756  0.82575482     0.12600
C1082       C  0.49867801  0.59302176  0.80587405    -0.22900
H1083       H  0.48481837  0.55108914  0.77291980     0.08300
C1084       C  0.43088673  0.52102271  0.73617274     0.04600
C1085       C  0.42382081  0.49618827  0.72299140    -0.20100
C1086       C  0.42503269  0.47097404  0.73701190    -0.12400
C1087       C  0.43642258  0.47036685  0.76372342     0.13300
C1088       C  0.44352854  0.49510227  0.77673872    -0.22800
C1089       C  0.42778006  0.54789751  0.72120402    -0.05900
H1090       H  0.41489572  0.49678763  0.70265649     0.14800
C1091       C  0.44004941  0.44397742  0.77953387    -0.16100
H1092       H  0.45070988  0.49467080  0.79776868     0.09200
H1093       H  0.50599991  0.60061003  0.78568129     0.07000
H1094       H  0.51313549  0.57710917  0.81345081     0.08200
H1095       H  0.49905674  0.61063793  0.82031576     0.07300
H1096       H  0.39235369  0.52039020  0.79899365     0.02100
H1097       H  0.38388051  0.54324819  0.77101498     0.02600
H1098       H  0.37520830  0.55242492  0.80564785     0.06100
H1099       H  0.42067569  0.54476416  0.69980419     0.05100
H1100       H  0.44787311  0.55868721  0.72056220    -0.00700
H1101       H  0.41259101  0.56112214  0.73188288     0.00800
H1102       H  0.46184574  0.44191096  0.78584767     0.04500
H1103       H  0.43471712  0.42549985  0.76728962     0.06400
H1104       H  0.42694726  0.44437915  0.79816815     0.07300
C1105       C  0.39020360  0.57289250  0.97501790    -0.22300
C1106       C  0.37795444  0.55071001  0.96141226     0.09600
C1107       C  0.37321496  0.55232984  0.93288958     0.10000
C1108       C  0.38420080  0.57454926  0.91802483    -0.17300
C1109       C  0.39964476  0.59494739  0.93128773    -0.27700
C1110       C  0.40111599  0.59508845  0.96024370     0.18400
C1111       C  0.37453647  0.52452576  0.97658028     0.12300
C1112       C  0.35781496  0.52993408  0.91808110    -0.12000
H1113       H  0.38297141  0.57458175  0.89583726     0.12600
C1114       C  0.41534899  0.61806621  0.97544457    -0.22900
H1115       H  0.39311392  0.57181660  0.99701703     0.08300
C1116       C  0.39507711  0.50410867  0.97549554     0.04600
C1117       C  0.39136165  0.47942658  0.98987415    -0.20100
C1118       C  0.36763128  0.47450236  0.00561240    -0.12400
C1119       C  0.34758163  0.49578339  0.00767820     0.13300
C1120       C  0.35140502  0.52047533  0.99308698    -0.22800
C1121       C  0.42108788  0.50843403  0.95922550    -0.05900
H1122       H  0.40693079  0.46360909  0.98818026     0.14800
C1123       C  0.32220904  0.49310237  0.02526049    -0.16100
H1124       H  0.33615054  0.53665669  0.99431051     0.09200
H1125       H  0.43743572  0.61891814  0.96997751     0.07000
H1126       H  0.41389829  0.61531781  0.99799945     0.08200
H1127       H  0.40560833  0.63799739  0.97011662     0.07300
H1128       H  0.33682441  0.52809320  0.92679730     0.02100
H1129       H  0.36856711  0.50996459  0.92039658     0.02600
H1130       H  0.35592062  0.53439968  0.89583748     0.06100
H1131       H  0.43517404  0.49055879  0.96085035     0.05100
H1132       H  0.43207935  0.52687592  0.96698478    -0.00700
H1133       H  0.41617489  0.51144270  0.93723732     0.00800
H1134       H  0.31026227  0.51254685  0.02592269     0.04500
H1135       H  0.32811159  0.48793092  0.04662341     0.06400
H1136       H  0.30840116  0.47702327  0.01685469     0.07300
C1137       C  0.60890204  0.63968808  0.86233670    -0.22300
C1138       C  0.61790588  0.61356214  0.87034277     0.09600
C1139       C  0.59890018  0.59270791  0.87645907     0.10000
C1140       C  0.57102124  0.59921887  0.87697529    -0.17300
C1141       C  0.56210208  0.62630717  0.87231876    -0.27700
C1142       C  0.58103462  0.64645979  0.86334704     0.18400
C1143       C  0.64686349  0.61050859  0.87757087     0.12300
C1144       C  0.60819739  0.56408521  0.88378008    -0.12000
H1145       H  0.55643251  0.58360781  0.88331680     0.12600
C1146       C  0.57221760  0.67508567  0.85533283    -0.22900
H1147       H  0.62391915  0.65539733  0.85734275     0.08300
C1148       C  0.66732571  0.60745676  0.85757709     0.04600
C1149       C  0.69479047  0.60925079  0.86554967    -0.20100
C1150       C  0.70204933  0.61446206  0.89304008    -0.12400
C1151       C  0.68124001  0.61546954  0.91336735     0.13300
C1152       C  0.65384566  0.61354313  0.90520873    -0.22800
C1153       C  0.66010338  0.60289475  0.82791308    -0.05900
H1154       H  0.71054567  0.60791906  0.84990515     0.14800
C1155       C  0.68733223  0.61868011  0.94354102    -0.16100
H1156       H  0.63761860  0.61553655  0.92033034     0.09200
H1157       H  0.58952160  0.68709707  0.84652746     0.07000
H1158       H  0.56461043  0.68657599  0.87343979     0.08200
H1159       H  0.55581049  0.67385618  0.83963290     0.07300
H1160       H  0.62105652  0.56462521  0.90253788     0.02100
H1161       H  0.62040298  0.55537336  0.86661986     0.02600
H1162       H  0.59053311  0.55016992  0.88773157     0.06100
H1163       H  0.67872304  0.60056907  0.81495183     0.05100
H1164       H  0.64814544  0.62063579  0.82005571    -0.00700
H1165       H  0.64760655  0.58388690  0.82591336     0.00800
H1166       H  0.69584228  0.63942198  0.94777079     0.04500
H1167       H  0.70205232  0.60258807  0.95020205     0.06400
H1168       H  0.66850418  0.61649518  0.95623771     0.07300
C1169       C  0.37492358  0.88785808  0.34189863    -0.22300
C1170       C  0.36982352  0.87906112  0.36868523     0.09600
C1171       C  0.36571722  0.89815577  0.38981677     0.10000
C1172       C  0.36948944  0.92599832  0.38417570    -0.17300
C1173       C  0.37781816  0.93490219  0.35795424    -0.27700
C1174       C  0.37885741  0.91567517  0.33606033     0.18400
C1175       C  0.37349742  0.84989364  0.37453318     0.12300
C1176       C  0.35830845  0.88900757  0.41838856    -0.12000
H1177       H  0.36753485  0.94057986  0.40086741     0.12600
C1178       C  0.38460988  0.92374140  0.30672356    -0.22900
H1179       H  0.37755477  0.87265322  0.32582483     0.08300
C1180       C  0.35392680  0.83034582  0.36635992     0.04600
C1181       C  0.36095157  0.80258852  0.36735122    -0.20100
C1182       C  0.38729114  0.79435672  0.37565339    -0.12400
C1183       C  0.40623574  0.81389610  0.38556256     0.13300
C1184       C  0.39898664  0.84164516  0.38495564    -0.22800
C1185       C  0.32615052  0.83886297  0.35580424    -0.05900
H1186       H  0.34644091  0.78738843  0.35991962     0.14800
C1187       C  0.43381261  0.80565028  0.39685133    -0.16100
H1188       H  0.41373062  0.85711562  0.39131237     0.09200
H1189       H  0.38196973  0.90610136  0.29247482     0.07000
H1190       H  0.40611423  0.93094337  0.30448956     0.08200
H1191       H  0.37013684  0.94009762  0.30021635     0.07300
H1192       H  0.37484072  0.87586195  0.42690714     0.02100
H1193       H  0.33885573  0.87709262  0.41781675     0.02600
H1194       H  0.35539559  0.90677095  0.43241706     0.06100
H1195       H  0.31320153  0.82078041  0.35061296     0.05100
H1196       H  0.32850896  0.85151593  0.33702062    -0.00700
H1197       H  0.31531414  0.85108297  0.37170729     0.00800
H1198       H  0.44529244  0.82363494  0.40499508     0.04500
H1199       H  0.44663121  0.79609637  0.38064857     0.06400
H1200       H  0.43078381  0.79085488  0.41388970     0.07300
C1201       C  0.96044989  0.91203751  0.23140963    -0.22300
C1202       C  0.94752026  0.93743096  0.22676782     0.09600
C1203       C  0.93660184  0.94310067  0.20053726     0.10000
C1204       C  0.93929691  0.92355882  0.17958334    -0.17300
C1205       C  0.95159035  0.89788765  0.18418645    -0.27700
C1206       C  0.96245612  0.89207626  0.21047928     0.18400
C1207       C  0.94424530  0.95760797  0.24955839     0.12300
C1208       C  0.92132290  0.96945176  0.19472627    -0.12000
H1209       H  0.93132895  0.92822490  0.15943244     0.12600
C1210       C  0.97694767  0.86536644  0.21630566    -0.22900
H1211       H  0.96883946  0.90779016  0.25152934     0.08300
C1212       C  0.92407690  0.95387567  0.27006524     0.04600
C1213       C  0.91668374  0.97620957  0.28685569    -0.20100
C1214       C  0.92818182  0.00240910  0.28285162    -0.12400
C1215       C  0.95010441  0.00540862  0.26409679     0.13300
C1216       C  0.95824886  0.98282881  0.24804924    -0.22800
C1217       C  0.90858339  0.92715382  0.27258096    -0.05900
H1218       H  0.89944683  0.97404964  0.30079244     0.14800
C1219       C  0.96366202  0.03279411  0.25902643    -0.16100
H1220       H  0.97397605  0.98563424  0.23254811     0.09200
H1221       H  0.96242105  0.84791024  0.21414631     0.07000
H1222       H  0.98532300  0.86482429  0.23746530     0.08200
H1223       H  0.99431464  0.86267273  0.20178045     0.07300
H1224       H  0.93523240  0.98736391  0.19710153     0.02100
H1225       H  0.90376303  0.97154333  0.20911586     0.02600
H1226       H  0.91305546  0.96992127  0.17351865     0.06100
H1227       H  0.89286234  0.92801124  0.28907287     0.05100
H1228       H  0.92304513  0.91024754  0.27750476    -0.00700
H1229       H  0.89796473  0.92245940  0.25299478     0.00800
H1230       H  0.98611384  0.03090733  0.26245221     0.04500
H1231       H  0.95583161  0.04909429  0.27291139     0.06400
H1232       H  0.95999657  0.03928920  0.23752028     0.07300
C1233       C  0.87625352  0.75023771  0.04352027    -0.22300
C1234       C  0.88608461  0.72327595  0.04119785     0.09600
C1235       C  0.90909641  0.71491673  0.05649033     0.10000
C1236       C  0.92211954  0.73393328  0.07366970    -0.17300
C1237       C  0.91272975  0.76117322  0.07576703    -0.27700
C1238       C  0.88934972  0.76943553  0.06058133     0.18400
C1239       C  0.87240556  0.70422028  0.02205113     0.12300
C1240       C  0.92010024  0.68604290  0.05432480    -0.12000
H1241       H  0.94003474  0.72761128  0.08522711     0.12600
C1242       C  0.87890074  0.79863659  0.06112596    -0.22900
H1243       H  0.85856676  0.75635741  0.03151300     0.08300
C1244       C  0.84985141  0.68814164  0.03038366     0.04600
C1245       C  0.83752075  0.67036387  0.01145486    -0.20100
C1246       C  0.84723874  0.66834031  0.98437893    -0.12400
C1247       C  0.87007636  0.68439128  0.97614322     0.13300
C1248       C  0.88238807  0.70216710  0.99518983    -0.22800
C1249       C  0.83871583  0.68995691  0.05915293    -0.05900
H1250       H  0.81998313  0.65814108  0.01775530     0.14800
C1251       C  0.88081973  0.68382962  0.94715302    -0.16100
H1252       H  0.89976206  0.71472831  0.98910874     0.09200
H1253       H  0.87163200  0.80395713  0.08202859     0.07000
H1254       H  0.86139486  0.80161056  0.04686181     0.08200
H1255       H  0.89552187  0.81299845  0.05489957     0.07300
H1256       H  0.92636589  0.68175684  0.03285787     0.02100
H1257       H  0.90401237  0.67110161  0.06053412     0.02600
H1258       H  0.93825420  0.68290871  0.06771608     0.06100
H1259       H  0.82099629  0.67590018  0.06228193     0.05100
H1260       H  0.83176164  0.71128045  0.06339710    -0.00700
H1261       H  0.85495371  0.68429255  0.07405658     0.00800
H1262       H  0.89784874  0.69874088  0.94412176     0.04500
H1263       H  0.86411517  0.68925172  0.93266452     0.06400
H1264       H  0.88883402  0.66305247  0.94220434     0.07300
C1265       C  0.88855966  0.97137857  0.02543971    -0.22300
C1266       C  0.86513821  0.95900321  0.03676907     0.09600
C1267       C  0.83963037  0.97238420  0.03483248     0.10000
C1268       C  0.83821977  0.99820062  0.02203688    -0.17300
C1269       C  0.86181222  0.01124383  0.01128085    -0.27700
C1270       C  0.88732953  0.99720808  0.01263305     0.18400
C1271       C  0.86869383  0.93289530  0.05204257     0.12300
C1272       C  0.81393705  0.95940497  0.04620649    -0.12000
H1273       H  0.81853587  0.00851836  0.02111270     0.12600
C1274       C  0.91340143  0.00890508  0.00064004    -0.22900
H1275       H  0.90811892  0.96088203  0.02715303     0.08300
C1276       C  0.87618388  0.90838473  0.03853842     0.04600
C1277       C  0.88686382  0.88651647  0.05391751    -0.20100
C1278       C  0.89052489  0.88879300  0.08240450    -0.12400
C1279       C  0.87968379  0.91201253  0.09620605     0.13300
C1280       C  0.86890830  0.93381264  0.08075548    -0.22800
C1281       C  0.87414278  0.90582505  0.00783382    -0.05900
H1282       H  0.89493019  0.86862696  0.04334862     0.14800
C1283       C  0.88116341  0.91578407  0.12680634    -0.16100
H1284       H  0.86273681  0.95256904  0.09110345     0.09200
H1285       H  0.91032144  0.01373633  0.97861600     0.07000
H1286       H  0.93075149  0.99416323  0.00209710     0.08200
H1287       H  0.91954281  0.02772514  0.01196159     0.07300
H1288       H  0.81592592  0.95655664  0.06867776     0.02100
H1289       H  0.81056131  0.93908862  0.03635581     0.02600
H1290       H  0.79554997  0.97234183  0.04239822     0.06100
H1291       H  0.88032786  0.88504140  0.00067024     0.05100
H1292       H  0.88772067  0.92109227  0.99771871    -0.00700
H1293       H  0.85260555  0.90945646  0.00134633     0.00800
H1294       H  0.89305048  0.93468128  0.13150795     0.04500
H1295       H  0.89077616  0.89828364  0.13758904     0.06400
H1296       H  0.86007482  0.91828067  0.13510569     0.07300
C1297       C  0.02529937  0.82191592  0.97900890    -0.22300
C1298       C  0.03071005  0.84824002  0.96886067     0.09600
C1299       C  0.02092730  0.87146462  0.98318294     0.10000
C1300       C  0.00685152  0.86788443  0.00800022    -0.17300
C1301       C  0.00242529  0.84159430  0.01921936    -0.27700
C1302       C  0.01129340  0.81814566  0.00397754     0.18400
C1303       C  0.04812151  0.85161184  0.94415290     0.12300
C1304       C  0.02616848  0.90017310  0.97270903    -0.12000
H1305       H  0.00000774  0.88593606  0.01909709     0.12600
C1306       C  0.00714649  0.78905762  0.01393307    -0.22900
H1307       H  0.03283246  0.80427227  0.96768298     0.08300
C1308       C  0.07701098  0.85303110  0.94634459     0.04600
C1309       C  0.09239279  0.86354173  0.92432414    -0.20100
C1310       C  0.07932186  0.87317862  0.90060801    -0.12400
C1311       C  0.05078097  0.86888998  0.89737855     0.13300
C1312       C  0.03549831  0.85797271  0.91917887    -0.22800
C1313       C  0.09130237  0.84559327  0.97268520    -0.05900
H1314       H  0.11420577  0.86720291  0.92690877     0.14800
C1315       C  0.03568889  0.87763137  0.87188109    -0.16100
H1316       H  0.01334945  0.85651548  0.91744804     0.09200
H1317       H  0.01798039  0.78599479  0.03370357     0.07000
H1318       H  0.01543427  0.77369236  0.99923872     0.08200
H1319       H  0.98488599  0.78475596  0.01638648     0.07300
H1320       H  0.01652678  0.90277965  0.95227400     0.02100
H1321       H  0.04861156  0.90381936  0.97095022     0.02600
H1322       H  0.01751376  0.91605554  0.98661577     0.06100
H1323       H  0.11389794  0.84830992  0.97109599     0.05100
H1324       H  0.08708202  0.82374224  0.97778012    -0.00700
H1325       H  0.08374576  0.85887823  0.98960444     0.00800
H1326       H  0.02455029  0.85971081  0.86317865     0.04500
H1327       H  0.04972258  0.88558507  0.85578527     0.06400
H1328       H  0.02062625  0.89396563  0.87707301     0.07300
C1329       C  0.24261043  0.93637175  0.99993027    -0.22300
C1330       C  0.24724589  0.92524507  0.97374720     0.09600
C1331       C  0.27055766  0.90849754  0.96948176     0.10000
C1332       C  0.28711921  0.90120603  0.99195806    -0.17300
C1333       C  0.28051506  0.90965798  0.01870203    -0.27700
C1334       C  0.25869474  0.92844892  0.02250866     0.18400
C1335       C  0.22532217  0.92766745  0.95249534     0.12300
C1336       C  0.27663866  0.89641393  0.94169668    -0.12000
H1337       H  0.30344293  0.88631916  0.98908750     0.12600
C1338       C  0.25059726  0.93871034  0.05051423    -0.22900
H1339       H  0.22495176  0.94954078  0.00321014     0.08300
C1340       C  0.20042095  0.91290773  0.95517874     0.04600
C1341       C  0.18027254  0.91516210  0.93476156    -0.20100
C1342       C  0.18432394  0.93146427  0.91135987    -0.12400
C1343       C  0.20938573  0.94602203  0.90841476     0.13300
C1344       C  0.22957168  0.94388499  0.92902930    -0.22800
C1345       C  0.19516029  0.89435443  0.97939861    -0.05900
H1346       H  0.16107692  0.90406489  0.93707542     0.14800
C1347       C  0.21518991  0.96472825  0.88448517    -0.16100
H1348       H  0.24865591  0.95518272  0.92691208     0.09200
H1349       H  0.22946016  0.93169363  0.05545812     0.07000
H1350       H  0.25108038  0.96154181  0.05069951     0.08200
H1351       H  0.26463957  0.93133120  0.06681688     0.07300
H1352       H  0.28040695  0.91317612  0.92672669     0.02100
H1353       H  0.25897226  0.88378354  0.93470367     0.02600
H1354       H  0.29512365  0.88305839  0.94209513     0.06100
H1355       H  0.17515171  0.88350492  0.97767379     0.05100
H1356       H  0.19473703  0.90660618  0.99857336    -0.00700
H1357       H  0.21158090  0.87858758  0.98078808     0.00800
H1358       H  0.21930372  0.98585774  0.89211052     0.04500
H1359       H  0.19794458  0.96599705  0.86977952     0.06400
H1360       H  0.23359052  0.95723456  0.87330023     0.07300
C1361       C  0.33449727  0.96235016  0.18258018    -0.22300
C1362       C  0.31166859  0.96894762  0.19891521     0.09600
C1363       C  0.28582962  0.95759619  0.19225986     0.10000
C1364       C  0.28400788  0.93773374  0.17131241    -0.17300
C1365       C  0.30722959  0.92969426  0.15608860    -0.27700
C1366       C  0.33257739  0.94304226  0.16111635     0.18400
C1367       C  0.31633260  0.98458990  0.22484288     0.12300
C1368       C  0.26022391  0.96652205  0.20717283    -0.12000
H1369       H  0.26442652  0.92796988  0.16715604     0.12600
C1370       C  0.35804212  0.93574875  0.14514279    -0.22900
H1371       H  0.35425235  0.97131918  0.18758716     0.08300
C1372       C  0.31911690  0.97049865  0.25002389     0.04600
C1373       C  0.32748778  0.98498876  0.27345133    -0.20100
C1374       C  0.33525509  0.01282185  0.27217940    -0.12400
C1375       C  0.33163206  0.02720054  0.24725136     0.13300
C1376       C  0.32175341  0.01300815  0.22394856    -0.22800
C1377       C  0.31603098  0.93963274  0.25174473    -0.05900
H1378       H  0.33087062  0.97377778  0.29235735     0.14800
C1379       C  0.34025554  0.05682364  0.24465118    -0.16100
H1380       H  0.31999742  0.02367818  0.20453477     0.09200
H1381       H  0.36259821  0.91349738  0.14749467     0.07000
H1382       H  0.37621251  0.94753167  0.15232889     0.08200
H1383       H  0.35495088  0.94058988  0.12313117     0.07300
H1384       H  0.25723466  0.98896948  0.20429247     0.02100
H1385       H  0.26185365  0.96221069  0.22940305     0.02600
H1386       H  0.24171320  0.95576449  0.19929263     0.06100
H1387       H  0.32013167  0.93185389  0.27274841     0.05100
H1388       H  0.33085744  0.92960922  0.23761720    -0.00700
H1389       H  0.29494728  0.93328442  0.24609180     0.00800
H1390       H  0.36255181  0.05886469  0.24897453     0.04500
H1391       H  0.32851565  0.06956236  0.25946848     0.06400
H1392       H  0.33638626  0.06491858  0.22372502     0.07300
C1393       C  0.38599431  0.80087996  0.99670572    -0.22300
C1394       C  0.38040177  0.77261799  0.99577090     0.09600
C1395       C  0.35980852  0.76137268  0.01271788     0.10000
C1396       C  0.34458831  0.77886770  0.02973644    -0.17300
C1397       C  0.34978416  0.80726861  0.03045394    -0.27700
C1398       C  0.37092543  0.81842879  0.01393930     0.18400
C1399       C  0.39566699  0.75516712  0.97622361     0.12300
C1400       C  0.35367327  0.73098821  0.01250575    -0.12000
H1401       H  0.32844407  0.77036327  0.04250977     0.12600
C1402       C  0.37683354  0.84885491  0.01348955    -0.22900
H1403       H  0.40188571  0.80923869  0.98354014     0.08300
C1404       C  0.38695982  0.75227898  0.94880867     0.04600
C1405       C  0.40125640  0.73444782  0.93127545    -0.20100
C1406       C  0.42422949  0.71978614  0.94053382    -0.12400
C1407       C  0.43290180  0.72270255  0.96810621     0.13300
C1408       C  0.41845879  0.74044065  0.98560954    -0.22800
C1409       C  0.36244840  0.76784519  0.93821134    -0.05900
H1410       H  0.39463954  0.73210135  0.91019583     0.14800
C1411       C  0.45658600  0.70635721  0.97953171    -0.16100
H1412       H  0.42470624  0.74261459  0.00682250     0.09200
H1413       H  0.35798409  0.86031627  0.00774191     0.07000
H1414       H  0.39315736  0.85407854  0.99844288     0.08200
H1415       H  0.38391447  0.85572986  0.03398849     0.07300
H1416       H  0.37222881  0.71933302  0.01875361     0.02100
H1417       H  0.34748447  0.72447253  0.99159148     0.02600
H1418       H  0.33678143  0.72565058  0.02687122     0.06100
H1419       H  0.35831051  0.76310517  0.91632950     0.05100
H1420       H  0.36616584  0.79030296  0.94005538    -0.00700
H1421       H  0.34393381  0.76227397  0.95029830     0.00800
H1422       H  0.47598342  0.71233081  0.96918147     0.04500
H1423       H  0.45278473  0.68402959  0.97651650     0.06400
H1424       H  0.45936036  0.71002921  0.00183154     0.07300
C1425       C  0.37116896  0.77432794  0.17603613    -0.22300
C1426       C  0.38032978  0.78778291  0.19973713     0.09600
C1427       C  0.38075321  0.81686487  0.20047011     0.10000
C1428       C  0.37003334  0.83175833  0.17824377    -0.17300
C1429       C  0.35841524  0.81816732  0.15572813    -0.27700
C1430       C  0.35988455  0.78914175  0.15414211     0.18400
C1431       C  0.38612029  0.77119286  0.22462583     0.12300
C1432       C  0.39066070  0.83215020  0.22544921    -0.12000
H1433       H  0.36842388  0.85396574  0.17957122     0.12600
C1434       C  0.34852350  0.77318193  0.13017709    -0.22900
H1435       H  0.37124304  0.75203156  0.17533563     0.08300
C1436       C  0.36456094  0.75913832  0.23983316     0.04600
C1437       C  0.37049701  0.74550529  0.26443752    -0.20100
C1438       C  0.39745817  0.74375756  0.27460794    -0.12400
C1439       C  0.41919526  0.75532133  0.25883809     0.13300
C1440       C  0.41316188  0.76871186  0.23399668    -0.22800
C1441       C  0.33508060  0.76149803  0.23068175    -0.05900
H1442       H  0.35374499  0.73666304  0.27613453     0.14800
C1443       C  0.44864693  0.75481604  0.26831406    -0.16100
H1444       H  0.42955208  0.77796210  0.22209529     0.09200
H1445       H  0.33171790  0.75948230  0.13728621     0.07000
H1446       H  0.36504037  0.76036063  0.12107306     0.08200
H1447       H  0.34039677  0.78666955  0.11375144     0.07300
H1448       H  0.41261621  0.82739344  0.22918180     0.02100
H1449       H  0.37836699  0.82597473  0.24361904     0.02600
H1450       H  0.38873008  0.85477257  0.22292680     0.06100
H1451       H  0.32073955  0.75178678  0.24552666     0.05100
H1452       H  0.33229553  0.75107946  0.21063983    -0.00700
H1453       H  0.32936656  0.78351164  0.22868950     0.00800
H1454       H  0.46249916  0.76563389  0.25376523     0.04500
H1455       H  0.45590514  0.73324325  0.26991456     0.06400
H1456       H  0.45046224  0.76524263  0.28848775     0.07300
C1457       C  0.10547806  0.84810082  0.12564596    -0.22300
C1458       C  0.11315295  0.87448504  0.11699380     0.09600
C1459       C  0.09316571  0.89393249  0.10973726     0.10000
C1460       C  0.06560262  0.88601933  0.10998837    -0.17300
C1461       C  0.05791927  0.85899874  0.11689863    -0.27700
C1462       C  0.07796981  0.84001880  0.12571873     0.18400
C1463       C  0.14243114  0.87960592  0.11273405     0.12300
C1464       C  0.10100795  0.92269125  0.10131612    -0.12000
H1465       H  0.05011594  0.90062031  0.10347605     0.12600
C1466       C  0.07061778  0.81148327  0.13540930    -0.22900
H1467       H  0.12126075  0.83345058  0.13132390     0.08300
C1468       C  0.16037957  0.88216696  0.13505938     0.04600
C1469       C  0.18843770  0.87854147  0.13065855    -0.20100
C1470       C  0.19870041  0.87193684  0.10445806    -0.12400
C1471       C  0.18079391  0.87278327  0.08155838     0.13300
C1472       C  0.15271820  0.87655321  0.08613611    -0.22800
C1473       C  0.14975673  0.88760182  0.16357608    -0.05900
H1474       H  0.20206022  0.87902082  0.14819594     0.14800
C1475       C  0.19061960  0.86917531  0.05242098    -0.16100
H1476       H  0.13847122  0.87511140  0.06912269     0.09200
H1477       H  0.08882741  0.80034312  0.14341108     0.07000
H1478       H  0.06215887  0.79912136  0.11827555     0.08200
H1479       H  0.05526946  0.81282774  0.15219084     0.07300
H1480       H  0.11411263  0.92205293  0.08270229     0.02100
H1481       H  0.11252066  0.93277894  0.11819154     0.02600
H1482       H  0.08267106  0.93541809  0.09665701     0.06100
H1483       H  0.16672725  0.88947039  0.17865370     0.05100
H1484       H  0.13617142  0.87054510  0.17028452    -0.00700
H1485       H  0.13795500  0.90713077  0.16374176     0.00800
H1486       H  0.20758535  0.88381058  0.04806485     0.04500
H1487       H  0.19761539  0.84775764  0.04893072     0.06400
H1488       H  0.17396182  0.87323468  0.03742659     0.07300
C1489       C  0.53130460  0.81617998  0.79777371    -0.22300
C1490       C  0.53637540  0.79121741  0.81137785     0.09600
C1491       C  0.56262890  0.78658552  0.82284312     0.10000
C1492       C  0.58305629  0.80679942  0.82031764    -0.17300
C1493       C  0.57809904  0.83187446  0.80692484    -0.27700
C1494       C  0.55183598  0.83654825  0.79527247     0.18400
C1495       C  0.51391789  0.77057768  0.81507877     0.12300
C1496       C  0.56903328  0.76058938  0.83847357    -0.12000
H1497       H  0.60311592  0.80311391  0.82921737     0.12600
C1498       C  0.54493714  0.86210925  0.77924822    -0.22900
H1499       H  0.51122918  0.81973474  0.78888884     0.08300
C1500       C  0.49295684  0.77462800  0.83472625     0.04600
C1501       C  0.47690866  0.75209568  0.84322537    -0.20100
C1502       C  0.48174327  0.72552906  0.83300078    -0.12400
C1503       C  0.50058261  0.72214709  0.81121213     0.13300
C1504       C  0.51618329  0.74479175  0.80223401    -0.22800
C1505       C  0.48903505  0.80212921  0.84841721    -0.05900
H1506       H  0.46268069  0.75465772  0.86015100     0.14800
C1507       C  0.50579418  0.69450790  0.79828397    -0.16100
H1508       H  0.53181970  0.74174476  0.78669084     0.09200
H1509       H  0.52801767  0.87331408  0.78964830     0.07000
H1510       H  0.53809256  0.85623449  0.75834277     0.08200
H1511       H  0.56253292  0.87631346  0.77685950     0.07300
H1512       H  0.56753337  0.74247914  0.82471821     0.02100
H1513       H  0.55436532  0.75815456  0.85574699     0.02600
H1514       H  0.59012869  0.76091378  0.84710278     0.06100
H1515       H  0.47233102  0.80151673  0.86392501     0.05100
H1516       H  0.48353431  0.81781963  0.83285960    -0.00700
H1517       H  0.50826429  0.80841112  0.85891321     0.00800
H1518       H  0.50159893  0.69572699  0.77595468     0.04500
H1519       H  0.49249639  0.67813979  0.80698742     0.06400
H1520       H  0.52756841  0.68856800  0.80131129     0.07300
C1521       C  0.70736814  0.01265427  0.85801291    -0.22300
C1522       C  0.72023031  0.00229442  0.88145250     0.09600
C1523       C  0.71630477  0.97458401  0.88897718     0.10000
C1524       C  0.69996053  0.95757566  0.87241146    -0.17300
C1525       C  0.68791024  0.96754791  0.84819355    -0.27700
C1526       C  0.69144021  0.99564543  0.84109387     0.18400
C1527       C  0.73925697  0.02046469  0.89663660     0.12300
C1528       C  0.73001171  0.96283462  0.91402161    -0.12000
H1529       H  0.69738396  0.93612356  0.87790677     0.12600
C1530       C  0.67832490  0.00810186  0.81601941    -0.22900
H1531       H  0.71050651  0.03404445  0.85255152     0.08300
C1532       C  0.76612156  0.02515750  0.88697433     0.04600
C1533       C  0.78342528  0.04297914  0.90146043    -0.20100
C1534       C  0.77463590  0.05621872  0.92556178    -0.12400
C1535       C  0.74756328  0.05132021  0.93530981     0.13300
C1536       C  0.73021410  0.03353057  0.92058029    -0.22800
C1537       C  0.77662698  0.01110178  0.86149061    -0.05900
H1538       H  0.80415151  0.04629438  0.89403201     0.14800
C1539       C  0.73642399  0.06515881  0.96065615    -0.16100
H1540       H  0.70944062  0.02980674  0.92768124     0.09200
H1541       H  0.68730689  0.99906954  0.79715375     0.07000
H1542       H  0.68167894  0.03068163  0.81498542     0.08200
H1543       H  0.65586566  0.00441191  0.81647628     0.07300
H1544       H  0.72299165  0.97405858  0.93256470     0.02100
H1545       H  0.75263886  0.96491935  0.91210078     0.02600
H1546       H  0.72509547  0.94069165  0.91677475     0.06100
H1547       H  0.79831175  0.01665709  0.85707476     0.05100
H1548       H  0.76403352  0.01721764  0.84356072    -0.00700
H1549       H  0.77547076  0.98844420  0.86411227     0.00800
H1550       H  0.71442064  0.06016552  0.96405857     0.04500
H1551       H  0.73820876  0.08782609  0.95859507     0.06400
H1552       H  0.74785213  0.05812661  0.97901624     0.07300
C1553       C  0.72642293  0.81656252  0.87693327    -0.22300
C1554       C  0.71231541  0.79245324  0.88387228     0.09600
C1555       C  0.68331909  0.79207943  0.88304902     0.10000
C1556       C  0.66918242  0.81503893  0.87269576    -0.17300
C1557       C  0.68355301  0.83807262  0.86295047    -0.27700
C1558       C  0.71236983  0.83941840  0.86649328     0.18400
C1559       C  0.72830413  0.76692883  0.88845335     0.12300
C1560       C  0.66748587  0.76687050  0.89161065    -0.12000
H1561       H  0.64715409  0.81388437  0.86969803     0.12600
C1562       C  0.72893658  0.86419633  0.85797520    -0.22900
H1563       H  0.74865612  0.81694792  0.87804501     0.08300
C1564       C  0.73423025  0.74898424  0.86652953     0.04600
C1565       C  0.74801089  0.72421410  0.87169074    -0.20100
C1566       C  0.75628663  0.71676692  0.89832734    -0.12400
C1567       C  0.75150313  0.73575845  0.92014612     0.13300
C1568       C  0.73750184  0.76050231  0.91479996    -0.22800
C1569       C  0.72578163  0.75591591  0.83762398    -0.05900
H1570       H  0.75181947  0.71035455  0.85471527     0.14800
C1571       C  0.76048909  0.73035504  0.94923338    -0.16100
H1572       H  0.73323085  0.77476371  0.93134932     0.09200
H1573       H  0.74335587  0.85839533  0.84130064     0.07000
H1574       H  0.74091986  0.87183657  0.87577323     0.08200
H1575       H  0.71587724  0.88139106  0.85069422     0.07300
H1576       H  0.67203960  0.76205360  0.91337659     0.02100
H1577       H  0.67341838  0.74905745  0.87866377     0.02600
H1578       H  0.64498287  0.76993454  0.88955976     0.06100
H1579       H  0.73208210  0.73970885  0.82285354     0.05100
H1580       H  0.73555816  0.77554182  0.83125612    -0.00700
H1581       H  0.70313593  0.75811149  0.83644718     0.00800
H1582       H  0.75551719  0.74782644  0.96305309     0.04500
H1583       H  0.78307784  0.72735259  0.94993052     0.06400
H1584       H  0.74979397  0.71194075  0.95743782     0.07300
C1585       C  0.78451866  0.90522475  0.73333608    -0.22300
C1586       C  0.79387096  0.87868687  0.72754014     0.09600
C1587       C  0.77812824  0.85574477  0.73577738     0.10000
C1588       C  0.75290371  0.85993616  0.74898162    -0.17300
C1589       C  0.74270036  0.88654916  0.75400171    -0.27700
C1590       C  0.75913818  0.90958855  0.74638466     0.18400
C1591       C  0.81938750  0.87500888  0.71141660     0.12300
C1592       C  0.78748726  0.82677403  0.72980258    -0.12000
H1593       H  0.74078888  0.84217020  0.75482366     0.12600
C1594       C  0.75002569  0.93889291  0.75086039    -0.22900
H1595       H  0.79689688  0.92262239  0.72693882     0.08300
C1596       C  0.81937406  0.87751173  0.68256345     0.04600
C1597       C  0.84182537  0.86741491  0.66753462    -0.20100
C1598       C  0.86318405  0.85342052  0.68073117    -0.12400
C1599       C  0.86476499  0.85423778  0.70967718     0.13300
C1600       C  0.84286027  0.86519729  0.72472849    -0.22800
C1601       C  0.79473197  0.88857549  0.66755000    -0.05900
H1602       H  0.84103766  0.86757116  0.64541041     0.14800
C1603       C  0.88839742  0.84162204  0.72512168    -0.16100
H1604       H  0.84312368  0.86398111  0.74691957     0.09200
H1605       H  0.76538691  0.95392151  0.74313907     0.07000
H1606       H  0.74727652  0.94287762  0.77310174     0.08200
H1607       H  0.73052482  0.94274976  0.73974779     0.07300
H1608       H  0.80722224  0.82264269  0.74036763     0.02100
H1609       H  0.79029162  0.82402473  0.70737592     0.02600
H1610       H  0.77234312  0.81125884  0.73696736     0.06100
H1611       H  0.79783568  0.88835297  0.64498838     0.05100
H1612       H  0.79080948  0.91012380  0.67395312    -0.00700
H1613       H  0.77640892  0.87581253  0.67228810     0.00800
H1614       H  0.89764455  0.85728545  0.73888006     0.04500
H1615       H  0.90482801  0.83409813  0.71122932     0.06400
H1616       H  0.88089332  0.82409499  0.73766522     0.07300
C1617       C  0.78847489  0.81399107  0.48668087    -0.22300
C1618       C  0.78377878  0.79971405  0.51124978     0.09600
C1619       C  0.75664888  0.79154470  0.51776120     0.10000
C1620       C  0.73472045  0.80039425  0.50120406    -0.17300
C1621       C  0.73915248  0.81728238  0.47825966    -0.27700
C1622       C  0.76652938  0.82280936  0.47008471     0.18400
C1623       C  0.80626586  0.79813926  0.53205169     0.12300
C1624       C  0.75065557  0.77457901  0.54291804    -0.12000
H1625       H  0.71380769  0.79636503  0.50772749     0.12600
C1626       C  0.77320880  0.84005485  0.44530479    -0.22900
H1627       H  0.80921640  0.82023670  0.48150657     0.08300
C1628       C  0.82952107  0.78094329  0.52928625     0.04600
C1629       C  0.84968941  0.78066407  0.55014722    -0.20100
C1630       C  0.84694267  0.79700570  0.57381718    -0.12400
C1631       C  0.82395481  0.81475758  0.57599047     0.13300
C1632       C  0.80418330  0.81515128  0.55514836    -0.22800
C1633       C  0.83253263  0.76225757  0.50487961    -0.05900
H1634       H  0.86708185  0.76687039  0.54847612     0.14800
C1635       C  0.81965706  0.83394344  0.59985532    -0.16100
H1636       H  0.78672099  0.82887153  0.55702726     0.09200
H1637       H  0.78678236  0.82820120  0.43133368     0.07000
H1638       H  0.78406364  0.85906039  0.45180011     0.08200
H1639       H  0.75471225  0.84605582  0.43354624     0.07300
H1640       H  0.75645788  0.78601345  0.56171437     0.02100
H1641       H  0.76245231  0.75507037  0.54196916     0.02600
H1642       H  0.72850172  0.76936399  0.54453033     0.06100
H1643       H  0.85146852  0.74961467  0.50619337     0.05100
H1644       H  0.83363136  0.77462424  0.48580426    -0.00700
H1645       H  0.81462719  0.74814798  0.50373330     0.00800
H1646       H  0.81780158  0.85539700  0.59227855     0.04500
H1647       H  0.83686482  0.83350075  0.61453263     0.06400
H1648       H  0.80050250  0.82829970  0.61087678     0.07300
C1649       C  0.57475260  0.77097822  0.42358192    -0.22300
C1650       C  0.55842301  0.76503874  0.44657777     0.09600
C1651       C  0.56552511  0.77652771  0.47218770     0.10000
C1652       C  0.58667738  0.79623175  0.47353087    -0.17300
C1653       C  0.60196659  0.80352384  0.45015731    -0.27700
C1654       C  0.59676339  0.78971358  0.42515382     0.18400
C1655       C  0.53244578  0.74931665  0.44247648     0.12300
C1656       C  0.55113690  0.76764451  0.49808837    -0.12000
H1657       H  0.59115585  0.80622974  0.49288599     0.12600
C1658       C  0.61352528  0.79549416  0.39981783    -0.22900
H1659       H  0.56956667  0.76168182  0.40405919     0.08300
C1660       C  0.50701236  0.76313726  0.44074819     0.04600
C1661       C  0.48341358  0.74841047  0.43322458    -0.20100
C1662       C  0.48468312  0.72074511  0.42484209    -0.12400
C1663       C  0.51006461  0.70662100  0.42741133     0.13300
C1664       C  0.53346776  0.72103487  0.43666190    -0.22800
C1665       C  0.50509927  0.79398825  0.44390166    -0.05900
H1666       H  0.46423368  0.75940993  0.43089866     0.14800
C1667       C  0.51401592  0.67715983  0.41865385    -0.16100
H1668       H  0.55307115  0.71052742  0.43763462     0.09200
H1669       H  0.61235392  0.81760180  0.39441131     0.07000
H1670       H  0.60615897  0.78341813  0.38194299     0.08200
H1671       H  0.63527913  0.78984212  0.40352812     0.07300
H1672       H  0.55411860  0.74520616  0.50105669     0.02100
H1673       H  0.52883238  0.77188077  0.49698855     0.02600
H1674       H  0.55944048  0.77843649  0.51636256     0.06100
H1675       H  0.48384687  0.80154449  0.44058671     0.05100
H1676       H  0.51859752  0.80414664  0.42858265    -0.00700
H1677       H  0.51145993  0.80045871  0.46469754     0.00800
H1678       H  0.52925150  0.67625186  0.40172068     0.04500
H1679       H  0.49496591  0.66715210  0.41149067     0.06400
H1680       H  0.52189833  0.66502106  0.43623353     0.07300
C1681       C  0.79382530  0.99876430  0.37974357    -0.22300
C1682       C  0.78980682  0.97263572  0.36833760     0.09600
C1683       C  0.80317950  0.96543084  0.34379004     0.10000
C1684       C  0.82018110  0.98475985  0.33091955    -0.17300
C1685       C  0.82430176  0.01112813  0.34212447    -0.27700
C1686       C  0.81101234  0.01815593  0.36705720     0.18400
C1687       C  0.77132389  0.95317934  0.38247723     0.12300
C1688       C  0.79963934  0.93728654  0.33133921    -0.12000
H1689       H  0.83048495  0.97912724  0.31202592     0.12600
C1690       C  0.81404424  0.04613203  0.38007375    -0.22900
H1691       H  0.78335071  0.00396829  0.39867096     0.08300
C1692       C  0.78039635  0.93763591  0.40505635     0.04600
C1693       C  0.76175067  0.92047975  0.41869578    -0.20100
C1694       C  0.73427327  0.91837578  0.41015127    -0.12400
C1695       C  0.72539846  0.93353879  0.38699790     0.13300
C1696       C  0.74412591  0.95082120  0.37348631    -0.22800
C1697       C  0.80971375  0.93924256  0.41475023    -0.05900
H1698       H  0.76861512  0.90880079  0.43631955     0.14800
C1699       C  0.69607771  0.93263639  0.37713007    -0.16100
H1700       H  0.73747641  0.96292108  0.35605721     0.09200
H1701       H  0.83561816  0.04943356  0.38658336     0.07000
H1702       H  0.80091464  0.04831373  0.39858044     0.08200
H1703       H  0.80790993  0.06232606  0.36528788     0.07300
H1704       H  0.77770648  0.93377993  0.32624821     0.02100
H1705       H  0.80649119  0.92135757  0.34612070     0.02600
H1706       H  0.81184649  0.93491259  0.31223895     0.06100
H1707       H  0.81346202  0.92546300  0.43250686     0.05100
H1708       H  0.81462543  0.96060612  0.42112290    -0.00700
H1709       H  0.82375543  0.93303448  0.39790710     0.00800
H1710       H  0.69261441  0.94690394  0.35969985     0.04500
H1711       H  0.68199170  0.93870337  0.39399213     0.06400
H1712       H  0.69089487  0.91159448  0.36997901     0.07300
C1713       C  0.55616908  0.91400311  0.38006157    -0.22300
C1714       C  0.56005749  0.94212978  0.37499292     0.09600
C1715       C  0.58628829  0.95384793  0.37904973     0.10000
C1716       C  0.60751076  0.93752315  0.38982208    -0.17300
C1717       C  0.60304664  0.90983237  0.39669922    -0.27700
C1718       C  0.57723577  0.89773767  0.39100650     0.18400
C1719       C  0.53557094  0.95916439  0.36850580     0.12300
C1720       C  0.59166619  0.98370343  0.37278351    -0.12000
H1721       H  0.62709959  0.94690646  0.39474943     0.12600
C1722       C  0.57049168  0.86834459  0.39819939    -0.22900
H1723       H  0.53598878  0.90503811  0.37709221     0.08300
C1724       C  0.52147964  0.95662772  0.34339528     0.04600
C1725       C  0.49654199  0.97064658  0.33973053    -0.20100
C1726       C  0.48515959  0.98699332  0.36067437    -0.12400
C1727       C  0.50007047  0.99066445  0.38530028     0.13300
C1728       C  0.52497431  0.97653306  0.38894081    -0.22800
C1729       C  0.53270517  0.93909581  0.32051237    -0.05900
H1730       H  0.48535873  0.96798943  0.32071178     0.14800
C1731       C  0.49020763  0.00978796  0.40757155    -0.16100
H1732       H  0.53593591  0.97845677  0.40817551     0.09200
H1733       H  0.56423095  0.85709210  0.37940475     0.07000
H1734       H  0.55327738  0.86786159  0.41314032     0.08200
H1735       H  0.58803362  0.85728814  0.40737970     0.07300
H1736       H  0.57869014  0.99701860  0.38594603     0.02100
H1737       H  0.58691386  0.98787143  0.35092668     0.02600
H1738       H  0.61345832  0.98932826  0.37649707     0.06100
H1739       H  0.51952913  0.94003585  0.30197052     0.05100
H1740       H  0.53389482  0.91729254  0.32708202    -0.00700
H1741       H  0.55354865  0.94640997  0.31481657     0.00800
H1742       H  0.50545929  0.01166902  0.42438196     0.04500
H1743       H  0.47086446  0.00195502  0.41670209     0.06400
H1744       H  0.48676441  0.03064831  0.39895830     0.07300
C1745       C  0.66359988  0.85438191  0.60420104    -0.22300
C1746       C  0.63728330  0.86003824  0.61432451     0.09600
C1747       C  0.61547508  0.86541543  0.59630081     0.10000
C1748       C  0.62098633  0.86717055  0.56831705    -0.17300
C1749       C  0.64787633  0.86410792  0.55827895    -0.27700
C1750       C  0.66925452  0.85628898  0.57620076     0.18400
C1751       C  0.63454784  0.86507490  0.64372359     0.12300
C1752       C  0.58670542  0.87013790  0.60669528    -0.12000
H1753       H  0.60449433  0.87264573  0.55445079     0.12600
C1754       C  0.69790309  0.85007425  0.56614284    -0.22900
H1755       H  0.68011066  0.85009729  0.61846713     0.08300
C1756       C  0.63607889  0.84361610  0.66288046     0.04600
C1757       C  0.63864055  0.85020447  0.69060284    -0.20100
C1758       C  0.64021607  0.87777854  0.69932864    -0.12400
C1759       C  0.63696176  0.89927019  0.68001644     0.13300
C1760       C  0.63408340  0.89250642  0.65237714    -0.22800
C1761       C  0.63553089  0.81393392  0.65398742    -0.05900
H1762       H  0.64077986  0.83366330  0.70532620     0.14800
C1763       C  0.63683394  0.92927246  0.68799317    -0.16100
H1764       H  0.63287738  0.90874090  0.63718268     0.09200
H1765       H  0.71116825  0.84217296  0.58288573     0.07000
H1766       H  0.70778329  0.86895196  0.55803848     0.08200
H1767       H  0.69708525  0.83413514  0.54984745     0.07300
H1768       H  0.58611539  0.88850242  0.62019168     0.02100
H1769       H  0.57975653  0.85186857  0.61846579     0.02600
H1770       H  0.57201733  0.87356184  0.58963666     0.06100
H1771       H  0.63641848  0.79972148  0.67178040     0.05100
H1772       H  0.65337403  0.80945477  0.64055083    -0.00700
H1773       H  0.61627491  0.80973673  0.64255747     0.00800
H1774       H  0.65750844  0.93565628  0.69509271     0.04500
H1775       H  0.62155003  0.93285710  0.70446376     0.06400
H1776       H  0.63136029  0.94272577  0.67043262     0.07300
C1777       C  0.43943508  0.27681490  0.08960629    -0.22300
C1778       C  0.45267544  0.26701745  0.06597545     0.09600
C1779       C  0.44301936  0.27538546  0.04000222     0.10000
C1780       C  0.42247747  0.29572290  0.03840030    -0.17300
C1781       C  0.41028219  0.30670831  0.06214587    -0.27700
C1782       C  0.41818313  0.29628944  0.08806143     0.18400
C1783       C  0.47792472  0.25002513  0.06946812     0.12300
C1784       C  0.45381673  0.26237423  0.01410251    -0.12000
H1785       H  0.41610113  0.30334415  0.01852336     0.12600
C1786       C  0.40563066  0.30601782  0.11460970    -0.22900
H1787       H  0.44647283  0.26998048  0.10955312     0.08300
C1788       C  0.50430971  0.26190483  0.06686652     0.04600
C1789       C  0.52750857  0.24675495  0.07483433    -0.20100
C1790       C  0.52510216  0.22092564  0.08761814    -0.12400
C1791       C  0.49869156  0.20873519  0.08960933     0.13300
C1792       C  0.47557987  0.22321955  0.07994014    -0.22800
C1793       C  0.50796414  0.29166220  0.05876004    -0.05900
H1794       H  0.54752090  0.25654428  0.07411339     0.14800
C1795       C  0.49359018  0.18180219  0.10405382    -0.16100
H1796       H  0.45530261  0.21435819  0.08253336     0.09200
H1797       H  0.42186349  0.31485754  0.12793278     0.07000
H1798       H  0.39614264  0.28827130  0.12537249     0.08200
H1799       H  0.38958235  0.32185884  0.11175671     0.07300
H1800       H  0.44958416  0.23993675  0.01457733     0.02100
H1801       H  0.47624096  0.26547360  0.01205782     0.02600
H1802       H  0.44381529  0.27109127  0.99559868     0.06100
H1803       H  0.52988651  0.29797586  0.05921264     0.05100
H1804       H  0.49657693  0.30506941  0.07327437    -0.00700
H1805       H  0.50024873  0.29533666  0.03776267     0.00800
H1806       H  0.48011159  0.18531366  0.12210146     0.04500
H1807       H  0.51256583  0.17172964  0.11132663     0.06400
H1808       H  0.48316581  0.16735028  0.08983081     0.07300
C1809       C  0.75255630  0.18621724  0.02319446    -0.22300
C1810       C  0.72671287  0.17663194  0.01495788     0.09600
C1811       C  0.72441045  0.16129767  0.99047770     0.10000
C1812       C  0.74839607  0.15334098  0.97643712    -0.17300
C1813       C  0.77450802  0.16019203  0.98658072    -0.27700
C1814       C  0.77648677  0.17819481  0.00928973     0.18400
C1815       C  0.70330343  0.17960169  0.03429434     0.12300
C1816       C  0.69675658  0.15236155  0.97991754    -0.12000
H1817       H  0.74680995  0.13959990  0.95900600     0.12600
C1818       C  0.80364648  0.18842397  0.01992248    -0.22900
H1819       H  0.75424414  0.19854926  0.04164726     0.08300
C1820       C  0.69694769  0.15836635  0.05306553     0.04600
C1821       C  0.67596972  0.16235786  0.07239186    -0.20100
C1822       C  0.66168912  0.18730745  0.07394729    -0.12400
C1823       C  0.66815036  0.20870274  0.05536914     0.13300
C1824       C  0.68877278  0.20448148  0.03556392    -0.22800
C1825       C  0.71317388  0.13195973  0.05359556    -0.05900
H1826       H  0.67144923  0.14632570  0.08718123     0.14800
C1827       C  0.65416647  0.23632319  0.05632815    -0.16100
H1828       H  0.69402087  0.22092080  0.02148957     0.09200
H1829       H  0.80625389  0.18191972  0.04153561     0.07000
H1830       H  0.80399619  0.21124422  0.01911443     0.08200
H1831       H  0.82129587  0.18076182  0.00772673     0.07300
H1832       H  0.68392157  0.17076943  0.97585325     0.02100
H1833       H  0.68620996  0.13921749  0.99524279     0.02600
H1834       H  0.69859952  0.14045061  0.96056855     0.06100
H1835       H  0.70586114  0.11783982  0.06994891     0.05100
H1836       H  0.73515690  0.13655882  0.05751958    -0.00700
H1837       H  0.71128805  0.12109231  0.03369884     0.00800
H1838       H  0.66963983  0.25261593  0.06036927     0.04500
H1839       H  0.63816521  0.23758524  0.07246562     0.06400
H1840       H  0.64419949  0.24046872  0.03629841     0.07300
C1841       C  0.46889380  0.12145079  0.26798740    -0.22300
C1842       C  0.47057656  0.11350372  0.24043154     0.09600
C1843       C  0.45474474  0.09127251  0.23075924     0.10000
C1844       C  0.43797949  0.07688954  0.24916546    -0.17300
C1845       C  0.43658968  0.08444370  0.27690726    -0.27700
C1846       C  0.45201260  0.10716371  0.28644431     0.18400
C1847       C  0.49002762  0.12797394  0.22229665     0.12300
C1848       C  0.45569403  0.08271383  0.20108748    -0.12000
H1849       H  0.42606215  0.05948378  0.24195194     0.12600
C1850       C  0.45183566  0.11551054  0.31620765    -0.22900
H1851       H  0.48129403  0.13853682  0.27513278     0.08300
C1852       C  0.48320884  0.15315858  0.20990467     0.04600
C1853       C  0.50254044  0.16615548  0.19304932    -0.20100
C1854       C  0.52867212  0.15463611  0.18841656    -0.12400
C1855       C  0.53533461  0.12914198  0.20089970     0.13300
C1856       C  0.51582061  0.11618351  0.21766989    -0.22800
C1857       C  0.45555271  0.16624770  0.21448751    -0.05900
H1858       H  0.49717823  0.18554997  0.18350828     0.14800
C1859       C  0.56307381  0.11579625  0.19758211    -0.16100
H1860       H  0.52072099  0.09679064  0.22747570     0.09200
H1861       H  0.46611865  0.13287221  0.32022584     0.07000
H1862       H  0.45828226  0.09787409  0.32912854     0.08200
H1863       H  0.43093010  0.12218734  0.32233269     0.07300
H1864       H  0.47687545  0.07644584  0.19547069     0.02100
H1865       H  0.44930750  0.10018678  0.18791569     0.02600
H1866       H  0.44176420  0.06510538  0.19690713     0.06100
H1867       H  0.45347815  0.18589058  0.20306157     0.05100
H1868       H  0.45266099  0.17068401  0.23662545    -0.00700
H1869       H  0.43909916  0.15208252  0.20748046     0.00800
H1870       H  0.56488769  0.09674180  0.21000178     0.04500
H1871       H  0.57939773  0.13016447  0.20440594     0.06400
H1872       H  0.56643346  0.11000800  0.17583359     0.07300
C1873       C  0.74367547  0.08367186  0.22140795    -0.22300
C1874       C  0.73458546  0.11091767  0.21999238     0.09600
C1875       C  0.75087329  0.13202933  0.23146801     0.10000
C1876       C  0.77597117  0.12539429  0.24397316    -0.17300
C1877       C  0.78545523  0.09810108  0.24531886    -0.27700
C1878       C  0.76887662  0.07689597  0.23375491     0.18400
C1879       C  0.70825325  0.11720885  0.20591044     0.12300
C1880       C  0.74209786  0.16171745  0.22995813    -0.12000
H1881       H  0.78833667  0.14176751  0.25264015     0.12600
C1882       C  0.77768032  0.04715530  0.23336794    -0.22900
H1883       H  0.73102611  0.06763807  0.21250348     0.08300
C1884       C  0.70626047  0.11777414  0.17700718     0.04600
C1885       C  0.68229971  0.12813436  0.16467015    -0.20100
C1886       C  0.66069258  0.13858837  0.18061969    -0.12400
C1887       C  0.66201582  0.13620740  0.20952005     0.13300
C1888       C  0.68560966  0.12518841  0.22175861    -0.22800
C1889       C  0.73008861  0.10924505  0.15923008    -0.05900
H1890       H  0.68155144  0.13050563  0.14258386     0.14800
C1891       C  0.63940348  0.14635217  0.22806254    -0.16100
H1892       H  0.68699596  0.12433277  0.24392539     0.09200
H1893       H  0.79777779  0.04515703  0.22277946     0.07000
H1894       H  0.76273232  0.03393273  0.22230783     0.08200
H1895       H  0.77919102  0.03918101  0.25462247     0.07300
H1896       H  0.72252804  0.16463988  0.24124803     0.02100
H1897       H  0.73922150  0.16778358  0.20821126     0.02600
H1898       H  0.75762146  0.17568363  0.23916089     0.06100
H1899       H  0.72542182  0.11177471  0.13709164     0.05100
H1900       H  0.73501808  0.08727688  0.16290775    -0.00700
H1901       H  0.74834361  0.12203754  0.16411101     0.00800
H1902       H  0.63201001  0.12914928  0.24109592     0.04500
H1903       H  0.62153940  0.15444908  0.21657354     0.06400
H1904       H  0.64739280  0.16299987  0.24146623     0.07300
C1905       C  0.63289897  0.27388167  0.33723393    -0.22300
C1906       C  0.62532153  0.28830215  0.31358045     0.09600
C1907       C  0.62629427  0.31734457  0.31341434     0.10000
C1908       C  0.63728907  0.33119559  0.33611093    -0.17300
C1909       C  0.64814297  0.31649724  0.35828215    -0.27700
C1910       C  0.64477785  0.28765868  0.35950321     0.18400
C1911       C  0.62046157  0.27269794  0.28802714     0.12300
C1912       C  0.61788562  0.33355774  0.28847788    -0.12000
H1913       H  0.64025225  0.35328627  0.33516685     0.12600
C1914       C  0.65508746  0.27133243  0.38365319    -0.22900
H1915       H  0.63161390  0.25161820  0.33731747     0.08300
C1916       C  0.64262476  0.26139878  0.27313973     0.04600
C1917       C  0.63767366  0.24908950  0.24767300    -0.20100
C1918       C  0.61113015  0.24797697  0.23650147    -0.12400
C1919       C  0.58877127  0.25880900  0.25190813     0.13300
C1920       C  0.59383118  0.27089390  0.27754989    -0.22800
C1921       C  0.67168959  0.26316707  0.28363695    -0.05900
H1922       H  0.65480463  0.24072883  0.23618121     0.14800
C1923       C  0.55969956  0.25897230  0.24126117    -0.16100
H1924       H  0.57705019  0.27971641  0.28921798     0.09200
H1925       H  0.65016750  0.24911534  0.38156834     0.07000
H1926       H  0.64530666  0.27902945  0.40273674     0.08200
H1927       H  0.67770937  0.27329144  0.38549445     0.07300
H1928       H  0.59586755  0.32982636  0.28396867     0.02100
H1929       H  0.63045165  0.32721466  0.27055234     0.02600
H1930       H  0.62076596  0.35601920  0.29155224     0.06100
H1931       H  0.68659776  0.25403935  0.26898791     0.05100
H1932       H  0.67350370  0.25184951  0.30329166    -0.00700
H1933       H  0.67744312  0.28503307  0.28688269     0.00800
H1934       H  0.54540243  0.26943764  0.25562765     0.04500
H1935       H  0.55221234  0.23756460  0.23863517     0.06400
H1936       H  0.55881077  0.27010918  0.22141481     0.07300
C1937       C  0.69922106  0.47982282  0.25893479    -0.22300
C1938       C  0.68709079  0.48522641  0.28448634     0.09600
C1939       C  0.66977311  0.50832965  0.28736008     0.10000
C1940       C  0.66320316  0.52413425  0.26412314    -0.17300
C1941       C  0.67287603  0.51680424  0.23799844    -0.27700
C1942       C  0.69206901  0.49512320  0.23560132     0.18400
C1943       C  0.68973477  0.46437015  0.30667999     0.12300
C1944       C  0.65652425  0.51498262  0.31446196    -0.12000
H1945       H  0.64803819  0.54036373  0.26588790     0.12600
C1946       C  0.70411976  0.48675772  0.20839623    -0.22900
H1947       H  0.71281975  0.46230216  0.25678482     0.08300
C1948       C  0.67499339  0.43935208  0.30538287     0.04600
C1949       C  0.67855060  0.41964039  0.32606370    -0.20100
C1950       C  0.69628747  0.42425640  0.34827006    -0.12400
C1951       C  0.71064807  0.44957914  0.34991967     0.13300
C1952       C  0.70704810  0.46937246  0.32912619    -0.22800
C1953       C  0.65536770  0.43343301  0.28221216    -0.05900
H1954       H  0.66763485  0.40023107  0.32472610     0.14800
C1955       C  0.73083503  0.45597915  0.37242752    -0.16100
H1956       H  0.71830888  0.48859416  0.33010557     0.09200
H1957       H  0.69825537  0.46521361  0.20365034     0.07000
H1958       H  0.72685330  0.48810234  0.20942994     0.08200
H1959       H  0.69715992  0.50015389  0.19136395     0.07300
H1960       H  0.67260767  0.51929159  0.32998123     0.02100
H1961       H  0.64384534  0.49730479  0.32139691     0.02600
H1962       H  0.64300850  0.53331699  0.31303307     0.06100
H1963       H  0.64496529  0.41325209  0.28480191     0.05100
H1964       H  0.66659014  0.43296877  0.26241229    -0.00700
H1965       H  0.63933034  0.44963158  0.28142525     0.00800
H1966       H  0.75132684  0.46014357  0.36331676     0.04500
H1967       H  0.73327867  0.43900964  0.38733771     0.06400
H1968       H  0.72394540  0.47454964  0.38375667     0.07300
C1969       C  0.72480288  0.57480812  0.07634061    -0.22300
C1970       C  0.73352442  0.55058748  0.06334043     0.09600
C1971       C  0.72326595  0.52504620  0.07249902     0.10000
C1972       C  0.70236470  0.52452882  0.09243355    -0.17300
C1973       C  0.69222107  0.54893026  0.10411375    -0.27700
C1974       C  0.70439238  0.57435094  0.09672680     0.18400
C1975       C  0.74948506  0.55312936  0.03743015     0.12300
C1976       C  0.73427247  0.49845176  0.06107918    -0.12000
H1977       H  0.69341811  0.50502241  0.09848524     0.12600
C1978       C  0.69544083  0.60153980  0.10862114    -0.22900
H1979       H  0.73284641  0.59441815  0.06939799     0.08300
C1980       C  0.73571177  0.55293274  0.01197408     0.04600
C1981       C  0.75013790  0.55979904  0.98808162    -0.20100
C1982       C  0.77756071  0.56880290  0.98899350    -0.12400
C1983       C  0.79180851  0.56766207  0.01424773     0.13300
C1984       C  0.77763274  0.55950628  0.03819142    -0.22800
C1985       C  0.70513177  0.54808651  0.01020726    -0.05900
H1986       H  0.73906450  0.56102846  0.96884547     0.14800
C1987       C  0.82117630  0.57711937  0.01640457    -0.16100
H1988       H  0.78803452  0.55985055  0.05781348     0.09200
H1989       H  0.68815893  0.61519427  0.09191050     0.07000
H1990       H  0.71317466  0.61152190  0.11889365     0.08200
H1991       H  0.67866799  0.59963872  0.12382192     0.07300
H1992       H  0.75664239  0.49714622  0.06523475     0.02100
H1993       H  0.73095877  0.49735010  0.03863405     0.02600
H1994       H  0.72416217  0.48032971  0.07060182     0.06100
H1995       H  0.69752293  0.54974926  0.98881888     0.05100
H1996       H  0.69412138  0.56365421  0.02273419    -0.00700
H1997       H  0.69986622  0.52727110  0.01781000     0.00800
H1998       H  0.82283475  0.59905287  0.01026572     0.04500
H1999       H  0.83431723  0.56440536  0.00278626     0.06400
H2000       H  0.82908800  0.57517835  0.03765935     0.07300
C2001       C  0.54384863  0.62066256  0.24733193    -0.22300
C2002       C  0.54189118  0.60991066  0.27389356     0.09600
C2003       C  0.55709697  0.58639008  0.28107750     0.10000
C2004       C  0.57354509  0.57367864  0.26120601    -0.17300
C2005       C  0.57523241  0.58402442  0.23432441    -0.27700
C2006       C  0.56043629  0.60813300  0.22740082     0.18400
C2007       C  0.52298116  0.62322526  0.29349496     0.12300
C2008       C  0.55602553  0.57481262  0.30969794    -0.12000
H2009       H  0.58508070  0.55543125  0.26668569     0.12600
C2010       C  0.56106087  0.62022637  0.19893980    -0.22900
H2011       H  0.53197280  0.63877082  0.24212143     0.08300
C2012       C  0.52965515  0.64838228  0.30614142     0.04600
C2013       C  0.51003033  0.66142253  0.32263050    -0.20100
C2014       C  0.48392692  0.64976957  0.32698342    -0.12400
C2015       C  0.47783474  0.62375435  0.31529906     0.13300
C2016       C  0.49742538  0.61097729  0.29846867    -0.22800
C2017       C  0.55746243  0.66141780  0.30221737    -0.05900
H2018       H  0.51503006  0.68103348  0.33197122     0.14800
C2019       C  0.45055248  0.60972711  0.31949202    -0.16100
H2020       H  0.49265516  0.59152604  0.28867904     0.09200
H2021       H  0.54710307  0.63818041  0.19704404     0.07000
H2022       H  0.55446010  0.60455112  0.18374285     0.08200
H2023       H  0.58210381  0.62745774  0.19397302     0.07300
H2024       H  0.53475449  0.56831984  0.31470710     0.02100
H2025       H  0.56275405  0.59071993  0.32459220     0.02600
H2026       H  0.56963454  0.55663715  0.31198330     0.06100
H2027       H  0.55949357  0.68082112  0.31407562     0.05100
H2028       H  0.56078706  0.66627945  0.28024248    -0.00700
H2029       H  0.57368609  0.64702319  0.30923190     0.00800
H2030       H  0.43376785  0.62335156  0.31248903     0.04500
H2031       H  0.44767693  0.60470109  0.34149315     0.06400
H2032       H  0.44909227  0.59018634  0.30777068     0.07300
C2033       C  0.52772938  0.60682874  0.01987745    -0.22300
C2034       C  0.54122782  0.62941214  0.03161482     0.09600
C2035       C  0.54074368  0.65499127  0.01821223     0.10000
C2036       C  0.52734304  0.65727704  0.99286812    -0.17300
C2037       C  0.51474726  0.63439987  0.98021226    -0.27700
C2038       C  0.51451930  0.60886720  0.99435665     0.18400
C2039       C  0.55767879  0.62482068  0.05671564     0.12300
C2040       C  0.55472101  0.67972590  0.03050765    -0.12000
H2041       H  0.52756712  0.67697801  0.98249618     0.12600
C2042       C  0.50048058  0.58364120  0.98304171    -0.22900
H2043       H  0.52823657  0.58724127  0.03048636     0.08300
C2044       C  0.54544622  0.62334794  0.08288870     0.04600
C2045       C  0.56079829  0.61308544  0.10501666    -0.20100
C2046       C  0.58799550  0.60423027  0.10136973    -0.12400
C2047       C  0.60081375  0.60792657  0.07557510     0.13300
C2048       C  0.58550688  0.61832934  0.05361787    -0.22800
C2049       C  0.51588624  0.63133614  0.08708003    -0.05900
H2050       H  0.55085301  0.60977555  0.12463781     0.14800
C2051       C  0.62986142  0.59893097  0.06986968    -0.16100
H2052       H  0.59485775  0.61964143  0.03346845     0.09200
H2053       H  0.50099282  0.56624211  0.99778259     0.07000
H2054       H  0.51099872  0.57665197  0.96409932     0.08200
H2055       H  0.47861563  0.58826454  0.97862102     0.07300
H2056       H  0.57702041  0.67563897  0.03281119     0.02100
H2057       H  0.54574756  0.68420565  0.05095457     0.02600
H2058       H  0.55224522  0.69828407  0.01747866     0.06100
H2059       H  0.50952499  0.62903944  0.10883022     0.05100
H2060       H  0.50238508  0.61811428  0.07433239    -0.00700
H2061       H  0.51294601  0.65316020  0.08108374     0.00800
H2062       H  0.62986549  0.58236952  0.05418182     0.04500
H2063       H  0.64035708  0.59113267  0.08836715     0.06400
H2064       H  0.64191251  0.61664984  0.06200438     0.07300
C2065       C  0.60309452  0.34673815  0.12342987    -0.22300
C2066       C  0.63049148  0.35537223  0.12324516     0.09600
C2067       C  0.65190336  0.33612989  0.12388503     0.10000
C2068       C  0.64537811  0.30834987  0.12697652    -0.17300
C2069       C  0.61792774  0.29975659  0.13013829    -0.27700
C2070       C  0.59639145  0.31905975  0.12696982     0.18400
C2071       C  0.63555432  0.38461879  0.12770086     0.12300
C2072       C  0.68147896  0.34508858  0.12235691    -0.12000
H2073       H  0.66194102  0.29358515  0.12871892     0.12600
C2074       C  0.56643870  0.31105111  0.12769468    -0.22900
H2075       H  0.58689974  0.36202523  0.12266954     0.08300
C2076       C  0.63208127  0.40382920  0.10654835     0.04600
C2077       C  0.62954965  0.43158351  0.11336900    -0.20100
C2078       C  0.62969356  0.44013138  0.14092753    -0.12400
C2079       C  0.63548780  0.42093106  0.16191599     0.13300
C2080       C  0.63858052  0.39329036  0.15488005    -0.22800
C2081       C  0.62999610  0.39484675  0.07707202    -0.05900
H2082       H  0.62565475  0.44636939  0.09721477     0.14800
C2083       C  0.63796452  0.42909606  0.19166687    -0.16100
H2084       H  0.64139465  0.37805083  0.17086329     0.09200
H2085       H  0.55290864  0.32863074  0.12234804     0.07000
H2086       H  0.56049623  0.30423467  0.14856752     0.08200
H2087       H  0.56248822  0.29436624  0.11265483     0.07300
H2088       H  0.68643493  0.35870533  0.13994097     0.02100
H2089       H  0.68504731  0.35646375  0.10294813     0.02600
H2090       H  0.69570665  0.32725556  0.12289106     0.06100
H2091       H  0.62750823  0.41265535  0.06304442     0.05100
H2092       H  0.61203281  0.38104839  0.07435684    -0.00700
H2093       H  0.64895561  0.38366484  0.07112050     0.00800
H2094       H  0.61774793  0.43570294  0.19980861     0.04500
H2095       H  0.65305064  0.44606197  0.19381889     0.06400
H2096       H  0.64506343  0.41168789  0.20457849     0.07300
C2097       C  0.45810679  0.41583595  0.13148119    -0.22300
C2098       C  0.45260794  0.44270163  0.14025458     0.09600
C2099       C  0.42526713  0.45228052  0.14049319     0.10000
C2100       C  0.40434959  0.43565050  0.12943635    -0.17300
C2101       C  0.41032627  0.40975077  0.11817756    -0.27700
C2102       C  0.43734277  0.39926004  0.12039366     0.18400
C2103       C  0.47627389  0.46127178  0.14537304     0.12300
C2104       C  0.41847356  0.48048788  0.15123242    -0.12000
H2105       H  0.38377763  0.44387246  0.12735884     0.12600
C2106       C  0.44540324  0.37153252  0.10918749    -0.22900
H2107       H  0.47910424  0.40841312  0.13156370     0.08300
C2108       C  0.49129397  0.46038921  0.16998208     0.04600
C2109       C  0.51565202  0.47572806  0.17222322    -0.20100
C2110       C  0.52572556  0.49156739  0.15018655    -0.12400
C2111       C  0.50986456  0.49337616  0.12592957     0.13300
C2112       C  0.48532215  0.47823065  0.12390986    -0.22800
C2113       C  0.48183694  0.44288194  0.19363840    -0.05900
H2114       H  0.52753616  0.47430685  0.19093717     0.14800
C2115       C  0.51840212  0.51133891  0.10222436    -0.16100
H2116       H  0.47351585  0.47887573  0.10509459     0.09200
H2117       H  0.45486285  0.35905072  0.12571744     0.07000
H2118       H  0.46054169  0.37416533  0.09235045     0.08200
H2119       H  0.42762287  0.35990518  0.10115410     0.07300
H2120       H  0.42938605  0.49636496  0.13902697     0.02100
H2121       H  0.42492222  0.48210420  0.17299570     0.02600
H2122       H  0.39610048  0.48474829  0.15011685     0.06100
H2123       H  0.49579721  0.44471784  0.21153368     0.05100
H2124       H  0.48118888  0.42094215  0.18736065    -0.00700
H2125       H  0.46099182  0.44942189  0.20015959     0.00800
H2126       H  0.53758274  0.50342827  0.09283880     0.04500
H2127       H  0.52160464  0.53276953  0.10944787     0.06400
H2128       H  0.50251642  0.51176285  0.08591008     0.07300
C2129       C  0.52994679  0.26768194  0.68434886    -0.22300
C2130       C  0.50129384  0.26709442  0.68747788     0.09600
C2131       C  0.48711483  0.24218841  0.68289941     0.10000
C2132       C  0.50166543  0.21894935  0.67392273    -0.17300
C2133       C  0.53004297  0.21997092  0.66838300    -0.27700
C2134       C  0.54455785  0.24451807  0.67472130     0.18400
C2135       C  0.48584111  0.29315677  0.69219333     0.12300
C2136       C  0.45630142  0.24056743  0.68572453    -0.12000
H2137       H  0.49036449  0.20035222  0.66901044     0.12600
C2138       C  0.57492588  0.24795476  0.66988733    -0.22900
H2139       H  0.54080465  0.28681939  0.68795861     0.08300
C2140       C  0.47625553  0.30085163  0.71838203     0.04600
C2141       C  0.45705008  0.32237051  0.72078114    -0.20100
C2142       C  0.44754383  0.33677629  0.69764028    -0.12400
C2143       C  0.45880429  0.33031056  0.67160174     0.13300
C2144       C  0.47780118  0.30863433  0.66930300    -0.22800
C2145       C  0.48585809  0.28595070  0.74365311    -0.05900
H2146       H  0.44856913  0.32729953  0.74074530     0.14800
C2147       C  0.45020162  0.34447139  0.64550893    -0.16100
H2148       H  0.48528577  0.30276205  0.64918942     0.09200
H2149       H  0.58508302  0.25350455  0.68949470     0.07000
H2150       H  0.57842404  0.26476218  0.65487800     0.08200
H2151       H  0.58504351  0.22926637  0.66193462     0.07300
H2152       H  0.44644097  0.25532934  0.67144515     0.02100
H2153       H  0.45013062  0.24563494  0.70702486     0.02600
H2154       H  0.44840419  0.21967878  0.68088794     0.06100
H2155       H  0.47652421  0.29463304  0.76255058     0.05100
H2156       H  0.50851524  0.28780367  0.74538401    -0.00700
H2157       H  0.48026727  0.26386144  0.74243953     0.00800
H2158       H  0.46837658  0.35440718  0.63595605     0.04500
H2159       H  0.43434454  0.36043318  0.64863106     0.06400
H2160       H  0.44182630  0.32905213  0.63094400     0.07300
C2161       C  0.56798624  0.99227796  0.73748396    -0.22300
C2162       C  0.57642423  0.01835544  0.74650450     0.09600
C2163       C  0.58959382  0.02072362  0.77218174     0.10000
C2164       C  0.59638818  0.99673782  0.78693305    -0.17300
C2165       C  0.59093562  0.97046199  0.77621210    -0.27700
C2166       C  0.57514928  0.96834177  0.75196437     0.18400
C2167       C  0.57500647  0.04189699  0.72690450     0.12300
C2168       C  0.59805106  0.04842710  0.78308512    -0.12000
H2169       H  0.60846098  0.99846497  0.80547796     0.12600
C2170       C  0.56673072  0.94093873  0.74024281    -0.22900
H2171       H  0.55742857  0.99042332  0.71801520     0.08300
C2172       C  0.59579847  0.04570978  0.70700465     0.04600
C2173       C  0.59306127  0.06661206  0.68730099    -0.20100
C2174       C  0.57008470  0.08398237  0.68694093    -0.12400
C2175       C  0.54957549  0.08071109  0.70729609     0.13300
C2176       C  0.55232983  0.05972627  0.72709222    -0.22800
C2177       C  0.62070465  0.02732939  0.70625054    -0.05900
H2178       H  0.60860207  0.06892015  0.67152619     0.14800
C2179       C  0.52425143  0.09844771  0.70820961    -0.16100
H2180       H  0.53638339  0.05685016  0.74234658     0.09200
H2181       H  0.57548922  0.93844632  0.71939524     0.07000
H2182       H  0.54400062  0.94001989  0.73878601     0.08200
H2183       H  0.57354918  0.92343459  0.75311739     0.07300
H2184       H  0.57962290  0.06161598  0.78561251     0.02100
H2185       H  0.61249440  0.05845903  0.76857232     0.02600
H2186       H  0.60840058  0.04669978  0.80328800     0.06100
H2187       H  0.63504863  0.03318338  0.68951884     0.05100
H2188       H  0.61433414  0.00566504  0.70285231    -0.00700
H2189       H  0.63194052  0.02882325  0.72598257     0.00800
H2190       H  0.50571863  0.08534882  0.70581219     0.04500
H2191       H  0.52396017  0.11428413  0.69186747     0.06400
H2192       H  0.52317671  0.10916985  0.72828300     0.07300
C2193       C  0.64092991  0.29752297  0.51520875    -0.22300
C2194       C  0.65306452  0.27203248  0.52083381     0.09600
C2195       C  0.67827210  0.26507491  0.50846800     0.10000
C2196       C  0.69077547  0.28380980  0.49052278    -0.17300
C2197       C  0.67832879  0.30908841  0.48410815    -0.27700
C2198       C  0.65316604  0.31616876  0.49689873     0.18400
C2199       C  0.63784250  0.25210261  0.53798909     0.12300
C2200       C  0.69167641  0.23768675  0.51381640    -0.12000
H2201       H  0.71003648  0.27832261  0.48082231     0.12600
C2202       C  0.63934976  0.34342981  0.49186012    -0.22900
H2203       H  0.62149350  0.30257231  0.52482030     0.08300
C2204       C  0.64050738  0.25144466  0.56676974     0.04600
C2205       C  0.62478751  0.23255000  0.58196436    -0.20100
C2206       C  0.60604836  0.21488937  0.56894421    -0.12400
C2207       C  0.60370822  0.21544822  0.54000235     0.13300
C2208       C  0.61978715  0.23396560  0.52492362    -0.22800
C2209       C  0.65961551  0.27091541  0.58134063    -0.05900
H2210       H  0.62652701  0.23209746  0.60410994     0.14800
C2211       C  0.58469039  0.19628137  0.52478378    -0.16100
H2212       H  0.61804625  0.23460522  0.50277702     0.09200
H2213       H  0.62088026  0.34608896  0.50497516     0.07000
H2214       H  0.63255672  0.34485133  0.47021397     0.08200
H2215       H  0.65380582  0.36047317  0.49653746     0.07300
H2216       H  0.67779528  0.22081320  0.50722805     0.02100
H2217       H  0.69604983  0.23547336  0.53602395     0.02600
H2218       H  0.71133870  0.23553205  0.50245079     0.06100
H2219       H  0.65919908  0.26775402  0.60388279     0.05100
H2220       H  0.65346009  0.29247487  0.57707530    -0.00700
H2221       H  0.68097415  0.26768811  0.57407475     0.00800
H2222       H  0.56301538  0.20096251  0.52996995     0.04500
H2223       H  0.58934226  0.17464381  0.53025640     0.06400
H2224       H  0.58692288  0.19837925  0.50222017     0.07300
C2225       C  0.63772137  0.06892429  0.53704342    -0.22300
C2226       C  0.64569439  0.04508605  0.55097895     0.09600
C2227       C  0.64705708  0.04528940  0.57990384     0.10000
C2228       C  0.63728153  0.06832546  0.59435923    -0.17300
C2229       C  0.62596265  0.09078940  0.58034928    -0.27700
C2230       C  0.62792277  0.09185204  0.55143568     0.18400
C2231       C  0.64850336  0.01916345  0.53521525     0.12300
C2232       C  0.65704444  0.02048654  0.59543232    -0.12000
H2233       H  0.63558706  0.06743283  0.61650501     0.12600
C2234       C  0.61776742  0.11619339  0.53527317    -0.22900
H2235       H  0.63723505  0.06892058  0.51482267     0.08300
C2236       C  0.62565346  0.00184498  0.53099236     0.04600
C2237       C  0.62909363  0.97687757  0.51697537    -0.20100
C2238       C  0.65490567  0.96857008  0.50688135    -0.12400
C2239       C  0.67767529  0.98679649  0.51030227     0.13300
C2240       C  0.67403357  0.01178047  0.52444504    -0.22800
C2241       C  0.59760000  0.00964598  0.54155318    -0.05900
H2242       H  0.61143918  0.96355800  0.51439299     0.14800
C2243       C  0.70604946  0.98036097  0.49965306    -0.16100
H2244       H  0.69130219  0.02551943  0.52753588     0.09200
H2245       H  0.60016897  0.10990309  0.52223409     0.07000
H2246       H  0.63453980  0.12403288  0.52195894     0.08200
H2247       H  0.61112795  0.13334158  0.54873723     0.07300
H2248       H  0.67848946  0.01577992  0.58928922     0.02100
H2249       H  0.64382924  0.00245477  0.59083424     0.02600
H2250       H  0.65667057  0.02398923  0.61793138     0.06100
H2251       H  0.58193232  0.99382407  0.53651350     0.05100
H2252       H  0.59104657  0.02939084  0.53220024    -0.00700
H2253       H  0.59818399  0.01199232  0.56417662     0.00800
H2254       H  0.72076702  0.99733649  0.50376572     0.04500
H2255       H  0.70537776  0.97729949  0.47710793     0.06400
H2256       H  0.71420124  0.96169553  0.50988612     0.07300
C2257       C  0.49618871  0.09796282  0.48297575    -0.22300
C2258       C  0.48320837  0.12056408  0.47069599     0.09600
C2259       C  0.48618489  0.14685649  0.48239956     0.10000
C2260       C  0.50107943  0.14980284  0.50684296    -0.17300
C2261       C  0.51284731  0.12697280  0.52023664    -0.27700
C2262       C  0.51103955  0.10075947  0.50754061     0.18400
C2263       C  0.46500975  0.11563519  0.44678855     0.12300
C2264       C  0.47340984  0.17175135  0.46921121    -0.12000
H2265       H  0.50250792  0.17001598  0.51609778     0.12600
C2266       C  0.52472389  0.07564927  0.51943498    -0.22900
H2267       H  0.49397051  0.07783785  0.47364955     0.08300
C2268       C  0.47564405  0.10907435  0.42068742     0.04600
C2269       C  0.45771402  0.09978246  0.40012943    -0.20100
C2270       C  0.42946766  0.09679858  0.40517368    -0.12400
C2271       C  0.41861590  0.10538455  0.43065652     0.13300
C2272       C  0.43653523  0.11480127  0.45112645    -0.22800
C2273       C  0.50597235  0.11085173  0.41489984    -0.05900
H2274       H  0.46607885  0.09259299  0.38081229     0.14800
C2275       C  0.38854241  0.10287125  0.43758588    -0.16100
H2276       H  0.42838686  0.11997133  0.47117308     0.09200
H2277       H  0.54692015  0.07978519  0.52266989     0.07000
H2278       H  0.52294803  0.05761109  0.50556066     0.08200
H2279       H  0.51489248  0.06991072  0.53913935     0.07300
H2280       H  0.45075665  0.16939601  0.46850028     0.02100
H2281       H  0.48141285  0.17409215  0.44801833     0.02600
H2282       H  0.47815141  0.19088718  0.48072217     0.06100
H2283       H  0.51077396  0.10537393  0.39331382     0.05100
H2284       H  0.51735780  0.09651678  0.42843300    -0.00700
H2285       H  0.51324346  0.13217785  0.41863693     0.00800
H2286       H  0.38583716  0.08834234  0.45493801     0.04500
H2287       H  0.37607079  0.09540697  0.42010894     0.06400
H2288       H  0.38044013  0.12332147  0.44368058     0.07300
C2289       C  0.27458620  0.04986855  0.50193076    -0.22300
C2290       C  0.26283747  0.05417340  0.47607867     0.09600
C2291       C  0.23552107  0.06390347  0.47451255     0.10000
C2292       C  0.22183561  0.07216453  0.49869244    -0.17300
C2293       C  0.23485623  0.07066506  0.52434741    -0.27700
C2294       C  0.26092335  0.05786449  0.52602061     0.18400
C2295       C  0.28076396  0.05138129  0.45135186     0.12300
C2296       C  0.22121629  0.06636341  0.44728078    -0.12000
H2297       H  0.20196355  0.08208185  0.49724439     0.12600
C2298       C  0.27553496  0.05394568  0.55295942    -0.22900
H2299       H  0.29528000  0.04176822  0.50326056     0.08300
C2300       C  0.29415342  0.07456205  0.43992533     0.04600
C2301       C  0.31291331  0.07100954  0.41822619    -0.20100
C2302       C  0.31962675  0.04474044  0.40836362    -0.12400
C2303       C  0.30613051  0.02151642  0.41970897     0.13300
C2304       C  0.28678196  0.02515908  0.44092248    -0.22800
C2305       C  0.28999216  0.10291505  0.45176369    -0.05900
H2306       H  0.32369573  0.08872214  0.41005346     0.14800
C2307       C  0.31174603  0.99262025  0.41000504    -0.16100
H2308       H  0.27684335  0.00733008  0.44987568     0.09200
H2309       H  0.29480292  0.06618115  0.55310935     0.07000
H2310       H  0.28068944  0.03186519  0.55562800     0.08200
H2311       H  0.26280047  0.06024405  0.57075860     0.07300
H2312       H  0.22012657  0.04580605  0.43741976     0.02100
H2313       H  0.23257614  0.08057358  0.43357989     0.02600
H2314       H  0.19995893  0.07428065  0.44964226     0.06100
H2315       H  0.30258079  0.11858556  0.44094421     0.05100
H2316       H  0.29604079  0.10302127  0.47370142    -0.00700
H2317       H  0.26815949  0.10908549  0.45007273     0.00800
H2318       H  0.32026135  0.98028165  0.42714542     0.04500
H2319       H  0.32640174  0.99180856  0.39262888     0.06400
H2320       H  0.29227179  0.98301202  0.40303842     0.07300
C2321       C  0.18601709  0.97353955  0.72826407    -0.22300
C2322       C  0.19123371  0.00183951  0.73081680     0.09600
C2323       C  0.18779039  0.01454073  0.75664695     0.10000
C2324       C  0.17895702  0.99871366  0.77904613    -0.17300
C2325       C  0.17125254  0.97100509  0.77606374    -0.27700
C2326       C  0.17574005  0.95799426  0.75041787     0.18400
C2327       C  0.19668702  0.01850067  0.70574004     0.12300
C2328       C  0.19071423  0.04526099  0.76014023    -0.12000
H2329       H  0.17551842  0.00869427  0.79857917     0.12600
C2330       C  0.16819603  0.92845715  0.74494727    -0.22900
H2331       H  0.18842402  0.96385501  0.70838069     0.08300
C2332       C  0.22284518  0.02954809  0.69984394     0.04600
C2333       C  0.22565482  0.04873551  0.67840951    -0.20100
C2334       C  0.20326324  0.05595597  0.66168015    -0.12400
C2335       C  0.17766311  0.04284270  0.66606058     0.13300
C2336       C  0.17461000  0.02465372  0.68831309    -0.22800
C2337       C  0.24784847  0.02060090  0.71567245    -0.05900
H2338       H  0.24543472  0.05831535  0.67475965     0.14800
C2339       C  0.15325324  0.04859749  0.64799981    -0.16100
H2340       H  0.15468518  0.01565974  0.69259173     0.09200
H2341       H  0.18656958  0.91719586  0.73748694     0.07000
H2342       H  0.15200847  0.92754296  0.72895915     0.08200
H2343       H  0.16054933  0.91761338  0.76331344     0.07300
H2344       H  0.17616709  0.05598782  0.74628812     0.02100
H2345       H  0.21187126  0.05201230  0.75528125     0.02600
H2346       H  0.18611026  0.05184298  0.78146429     0.06100
H2347       H  0.26673913  0.03095561  0.70813221     0.05100
H2348       H  0.25063669  0.99806336  0.71328778    -0.00700
H2349       H  0.24561612  0.02535408  0.73775560     0.00800
H2350       H  0.13473521  0.03716107  0.65488037     0.04500
H2351       H  0.15788816  0.04213511  0.62667230     0.06400
H2352       H  0.14825853  0.07082197  0.64819460     0.07300
C2353       C  0.12523120  0.18227960  0.50195153    -0.22300
C2354       C  0.13359873  0.20960676  0.49814521     0.09600
C2355       C  0.15692353  0.21961255  0.51201381     0.10000
C2356       C  0.17207306  0.20170390  0.52862763    -0.17300
C2357       C  0.16410144  0.17415064  0.53221198    -0.27700
C2358       C  0.14010658  0.16439444  0.51901518     0.18400
C2359       C  0.11809502  0.22734570  0.47901478     0.12300
C2360       C  0.16577775  0.24919585  0.50927238    -0.12000
H2361       H  0.19019396  0.20932101  0.53906795     0.12600
C2362       C  0.13065093  0.13502793  0.52199439    -0.22900
H2363       H  0.10716798  0.17489181  0.49126616     0.08300
C2364       C  0.12565472  0.22948666  0.45118289     0.04600
C2365       C  0.11121157  0.24753155  0.43401199    -0.20100
C2366       C  0.08908995  0.26313265  0.44396731    -0.12400
C2367       C  0.08143762  0.26077956  0.47193971     0.13300
C2368       C  0.09612957  0.24290185  0.48910567    -0.22800
C2369       C  0.14894920  0.21268056  0.43966983    -0.05900
H2370       H  0.11702513  0.24926145  0.41262741     0.14800
C2371       C  0.05857661  0.27777912  0.48413680    -0.16100
H2372       H  0.09068583  0.24121854  0.51059311     0.09200
H2373       H  0.11235217  0.13067700  0.50912771     0.07000
H2374       H  0.12492842  0.13085221  0.54361684     0.08200
H2375       H  0.14731031  0.12081999  0.51559029     0.07300
H2376       H  0.14905311  0.26292538  0.51648214     0.02100
H2377       H  0.17047063  0.25394888  0.48752191     0.02600
H2378       H  0.18440439  0.25366024  0.52162058     0.06100
H2379       H  0.15211537  0.21672316  0.41748665     0.05100
H2380       H  0.14443165  0.19044615  0.44228204    -0.00700
H2381       H  0.16830248  0.21772237  0.45056324     0.00800
H2382       H  0.03863846  0.27197264  0.47479862     0.04500
H2383       H  0.06262503  0.29997532  0.48056374     0.06400
H2384       H  0.05670657  0.27455559  0.50660051     0.07300
C2385       C  0.13129235  0.16605027  0.70473203    -0.22300
C2386       C  0.12886595  0.19461250  0.70187482     0.09600
C2387       C  0.13616228  0.20719646  0.67688669     0.10000
C2388       C  0.14752077  0.19106678  0.65585971    -0.17300
C2389       C  0.15215188  0.16280081  0.65956492    -0.27700
C2390       C  0.14334193  0.15000989  0.68410060     0.18400
C2391       C  0.12326254  0.21102278  0.72680402     0.12300
C2392       C  0.13324298  0.23778005  0.67301418    -0.12000
H2393       H  0.15482455  0.20091045  0.63728753     0.12600
C2394       C  0.14857985  0.12010389  0.69029690    -0.22900
H2395       H  0.12582949  0.15654138  0.72409755     0.08300
C2396       C  0.09648832  0.21529353  0.73671682     0.04600
C2397       C  0.09283275  0.22802805  0.76229895    -0.20100
C2398       C  0.11541972  0.23635388  0.77840749    -0.12400
C2399       C  0.14230433  0.23329222  0.76751464     0.13300
C2400       C  0.14576159  0.22060014  0.74190273    -0.22800
C2401       C  0.07189474  0.20605298  0.72045285    -0.05900
H2402       H  0.07215688  0.23057064  0.77011910     0.14800
C2403       C  0.16754045  0.24335811  0.78237205    -0.16100
H2404       H  0.16627158  0.21738851  0.73384158     0.09200
H2405       H  0.12874276  0.10941055  0.69385701     0.07000
H2406       H  0.16138211  0.11833895  0.70903736     0.08200
H2407       H  0.15949096  0.10938815  0.67355173     0.07300
H2408       H  0.14603273  0.24887189  0.68826269     0.02100
H2409       H  0.11143016  0.24378753  0.67577806     0.02600
H2410       H  0.13987345  0.24431135  0.65221987     0.06100
H2411       H  0.05234388  0.21114897  0.73103535     0.05100
H2412       H  0.07264775  0.18344142  0.71737451    -0.00700
H2413       H  0.07188251  0.21639076  0.70016748     0.00800
H2414       H  0.18635409  0.24105619  0.76968204     0.04500
H2415       H  0.17077987  0.23124838  0.80135725     0.06400
H2416       H  0.16528676  0.26552249  0.78742406     0.07300
C2417       C  0.41831783  0.09586532  0.62175035    -0.22300
C2418       C  0.40173156  0.11917425  0.62366888     0.09600
C2419       C  0.41349857  0.14544693  0.62676110     0.10000
C2420       C  0.44201875  0.14805601  0.62581419    -0.17300
C2421       C  0.45884889  0.12496832  0.62177775    -0.27700
C2422       C  0.44691238  0.09833580  0.62076408     0.18400
C2423       C  0.37214007  0.11606279  0.61953716     0.12300
C2424       C  0.39591440  0.17074383  0.63008187    -0.12000
H2425       H  0.45116805  0.16835505  0.62717167     0.12600
C2426       C  0.46374663  0.07257697  0.61700104    -0.22900
H2427       H  0.40873926  0.07583299  0.61965004     0.08300
C2428       C  0.36071377  0.11881124  0.59321772     0.04600
C2429       C  0.33221729  0.11932519  0.59046585    -0.20100
C2430       C  0.31493861  0.11749569  0.61350085    -0.12400
C2431       C  0.32669322  0.11262392  0.63976592     0.13300
C2432       C  0.35530452  0.11201179  0.64231324    -0.22800
C2433       C  0.37862876  0.12206999  0.56818748    -0.05900
H2434       H  0.32346623  0.12228152  0.57026530     0.14800
C2435       C  0.30975358  0.10920992  0.66546914    -0.16100
H2436       H  0.36467688  0.10948900  0.66230328     0.09200
H2437       H  0.47578973  0.07388715  0.59770318     0.07000
H2438       H  0.45064594  0.05390116  0.61575489     0.08200
H2439       H  0.47776779  0.06985572  0.63471323     0.07300
H2440       H  0.38296841  0.16866671  0.64871238     0.02100
H2441       H  0.38244457  0.17330652  0.61192743     0.02600
H2442       H  0.40853532  0.18966580  0.63224840     0.06100
H2443       H  0.36627326  0.12399215  0.54916380     0.05100
H2444       H  0.39217872  0.10384752  0.56601356    -0.00700
H2445       H  0.39149571  0.14082317  0.57015566     0.00800
H2446       H  0.29592331  0.09116420  0.66334796     0.04500
H2447       H  0.29759283  0.12810993  0.66940318     0.06400
H2448       H  0.32277710  0.10560201  0.68379472     0.07300
C2449       C  0.33853820  0.29136641  0.62395953    -0.22300
C2450       C  0.31029128  0.29498860  0.61997826     0.09600
C2451       C  0.29828756  0.32085108  0.62518612     0.10000
C2452       C  0.31437225  0.34183730  0.63671835    -0.17300
C2453       C  0.34199405  0.33725285  0.64342832    -0.27700
C2454       C  0.35452989  0.31211456  0.63593199     0.18400
C2455       C  0.29314374  0.27019084  0.61593950     0.12300
C2456       C  0.26818155  0.32566982  0.62012062    -0.12000
H2457       H  0.30473212  0.36095432  0.64289381     0.12600
C2458       C  0.38403014  0.30560811  0.64256945    -0.22900
H2459       H  0.34766018  0.27142097  0.61993582     0.08300
C2460       C  0.28919379  0.25809662  0.59006224     0.04600
C2461       C  0.27447300  0.23330414  0.58819078    -0.20100
C2462       C  0.26395134  0.22007242  0.61172739    -0.12400
C2463       C  0.26736302  0.23289867  0.63763149     0.13300
C2464       C  0.28186825  0.25777869  0.63928393    -0.22800
C2465       C  0.30076424  0.27121570  0.56459333    -0.05900
H2466       H  0.27202001  0.22376853  0.56826073     0.14800
C2467       C  0.25573462  0.22087726  0.66367303    -0.16100
H2468       H  0.28501632  0.26742827  0.65908068     0.09200
H2469       H  0.39520486  0.30040812  0.62341069     0.07000
H2470       H  0.38494253  0.28772649  0.65669363     0.08200
H2471       H  0.39480664  0.32304622  0.65242212     0.07300
H2472       H  0.25570607  0.31147938  0.63289074     0.02100
H2473       H  0.26348810  0.32197624  0.59816261     0.02600
H2474       H  0.26209497  0.34707984  0.62523656     0.06100
H2475       H  0.29568288  0.25917590  0.54591741     0.05100
H2476       H  0.32345941  0.27260560  0.56619777    -0.00700
H2477       H  0.29216436  0.29221433  0.56217343     0.00800
H2478       H  0.26627388  0.20130421  0.66870223     0.04500
H2479       H  0.23334532  0.21727131  0.66127870     0.06400
H2480       H  0.25864630  0.23488836  0.68143004     0.07300
C2481       C  0.08085452  0.45593808  0.23221718    -0.22300
C2482       C  0.07265454  0.45714263  0.25979992     0.09600
C2483       C  0.07051711  0.48308630  0.27272519     0.10000
C2484       C  0.07697661  0.50699139  0.25792593    -0.17300
C2485       C  0.08755406  0.50577343  0.23112934    -0.27700
C2486       C  0.08871009  0.47984932  0.21780181     0.18400
C2487       C  0.06963583  0.43125858  0.27596040     0.12300
C2488       C  0.06412249  0.48553866  0.30291880    -0.12000
H2489       H  0.07659861  0.52667813  0.26836423     0.12600
C2490       C  0.10009491  0.47622454  0.18929508    -0.22900
H2491       H  0.08274889  0.43602682  0.22237647     0.08300
C2492       C  0.04375922  0.42177846  0.28497779     0.04600
C2493       C  0.04245485  0.40141081  0.30543119    -0.20100
C2494       C  0.06637739  0.38917614  0.31597076    -0.12400
C2495       C  0.09204649  0.39635905  0.30449655     0.13300
C2496       C  0.09343432  0.41765566  0.28494623    -0.22800
C2497       C  0.01760597  0.43301268  0.27289761    -0.05900
H2498       H  0.02267395  0.39544305  0.31374923     0.14800
C2499       C  0.11803519  0.38252739  0.31377827    -0.16100
H2500       H  0.11326113  0.42453939  0.27750181     0.09200
H2501       H  0.08440768  0.46619132  0.17615273     0.07000
H2502       H  0.11859958  0.46291666  0.19006217     0.08200
H2503       H  0.10593251  0.49584341  0.17941370     0.07300
H2504       H  0.07964339  0.47400934  0.31496039     0.02100
H2505       H  0.04348130  0.47716204  0.30751741     0.02600
H2506       H  0.06451585  0.50727684  0.30993588     0.06100
H2507       H  0.99918336  0.42314387  0.28206517     0.05100
H2508       H  0.01737493  0.42897124  0.25049834    -0.00700
H2509       H  0.01602083  0.45548450  0.27627410     0.00800
H2510       H  0.13641424  0.39112596  0.30334040     0.04500
H2511       H  0.11693364  0.36020932  0.30908826     0.06400
H2512       H  0.12062983  0.38527785  0.33614197     0.07300
C2513       C  0.03519151  0.67062475  0.17326295    -0.22300
C2514       C  0.02854932  0.68682960  0.19614997     0.09600
C2515       C  0.03898105  0.67954673  0.22210895     0.10000
C2516       C  0.05845282  0.65829646  0.22400731    -0.17300
C2517       C  0.06658574  0.64324121  0.20076385    -0.27700
C2518       C  0.05380528  0.64862788  0.17531738     0.18400
C2519       C  0.01327453  0.71289341  0.19158282     0.12300
C2520       C  0.02937174  0.69397639  0.24772686    -0.12000
H2521       H  0.06780564  0.65373449  0.24363693     0.12600
C2522       C  0.06070354  0.63218739  0.15003836    -0.22900
H2523       H  0.02667431  0.67600250  0.15345970     0.08300
C2524       C  0.02738842  0.73821864  0.18980613     0.04600
C2525       C  0.01319065  0.76179256  0.18132307    -0.20100
C2526       C  0.98577336  0.76051023  0.17235228    -0.12400
C2527       C  0.97139737  0.73517348  0.17482646     0.13300
C2528       C  0.98527291  0.71188803  0.18496657    -0.22800
C2529       C  0.05804749  0.73998426  0.19409937    -0.05900
H2530       H  0.02441440  0.78092063  0.17900683     0.14800
C2531       C  0.94237967  0.73089835  0.16492127    -0.16100
H2532       H  0.97465235  0.69229336  0.18588521     0.09200
H2533       H  0.08295812  0.63364449  0.14546538     0.07000
H2534       H  0.04929019  0.63964978  0.13180527     0.08200
H2535       H  0.05512559  0.61029576  0.15332663     0.07300
H2536       H  0.00685465  0.69116983  0.24996433     0.02100
H2537       H  0.03388013  0.71628568  0.24676975     0.02600
H2538       H  0.03943246  0.68553774  0.26632636     0.06100
H2539       H  0.06592711  0.76114517  0.19059711     0.05100
H2540       H  0.06867856  0.72604992  0.17950395    -0.00700
H2541       H  0.06354945  0.73402262  0.21528443     0.00800
H2542       H  0.94223571  0.71506405  0.14849904     0.04500
H2543       H  0.93265200  0.74957435  0.15657219     0.06400
H2544       H  0.92946496  0.72354568  0.18220212     0.07300
C2545       C  0.22011579  0.50602696  0.12531084    -0.22300
C2546       C  0.22080583  0.47833429  0.13317392     0.09600
C2547       C  0.20341808  0.46884794  0.15420844     0.10000
C2548       C  0.18616026  0.48756407  0.16756402    -0.17300
C2549       C  0.18592583  0.51554054  0.16036506    -0.27700
C2550       C  0.20304320  0.52493520  0.13877271     0.18400
C2551       C  0.24049460  0.45973352  0.11960189     0.12300
C2552       C  0.20324821  0.43903898  0.16263115    -0.12000
H2553       H  0.17300478  0.48040086  0.18403462     0.12600
C2554       C  0.20517974  0.55468724  0.13021131    -0.22900
H2555       H  0.23361952  0.51307368  0.10906865     0.08300
C2556       C  0.23414849  0.44695622  0.09453236     0.04600
C2557       C  0.25357792  0.42967034  0.08229011    -0.20100
C2558       C  0.27937323  0.42503487  0.09440956    -0.12400
C2559       C  0.28564009  0.43790458  0.11973244     0.13300
C2560       C  0.26597797  0.45504828  0.13203477    -0.22800
C2561       C  0.20693135  0.45170670  0.08068247    -0.05900
H2562       H  0.24863506  0.41987171  0.06294821     0.14800
C2563       C  0.31322072  0.43470712  0.13337364    -0.16100
H2564       H  0.27055918  0.46515776  0.15131179     0.09200
H2565       H  0.19855367  0.55680318  0.10854580     0.07000
H2566       H  0.22686393  0.56156456  0.13190251     0.08200
H2567       H  0.19277748  0.56885228  0.14287577     0.07300
H2568       H  0.22391018  0.43301766  0.17008663     0.02100
H2569       H  0.19765247  0.42597472  0.14481808     0.02600
H2570       H  0.18821026  0.43505072  0.17930007     0.06100
H2571       H  0.20523316  0.44000308  0.06119880     0.05100
H2572       H  0.20449589  0.47389709  0.07592058    -0.00700
H2573       H  0.18998454  0.44507429  0.09441319     0.00800
H2574       H  0.31485261  0.44745084  0.15220863     0.04500
H2575       H  0.32976386  0.44127146  0.11911670     0.06400
H2576       H  0.31642289  0.41295507  0.13944475     0.07300
C2577       C  0.17587309  0.69260621  0.13053499    -0.22300
C2578       C  0.20361233  0.68832277  0.12429437     0.09600
C2579       C  0.21497966  0.66180130  0.12701642     0.10000
C2580       C  0.19878000  0.64052903  0.13795770    -0.17300
C2581       C  0.17166195  0.64542441  0.14644151    -0.27700
C2582       C  0.15980302  0.67157930  0.14187418     0.18400
C2583       C  0.22088321  0.71275358  0.11867616     0.12300
C2584       C  0.24449481  0.65636829  0.11960694    -0.12000
H2585       H  0.20799769  0.62066073  0.14202352     0.12600
C2586       C  0.13102167  0.67867995  0.15079919    -0.22900
H2587       H  0.16723772  0.71304739  0.12836129     0.08300
C2588       C  0.22156344  0.72528319  0.09270635     0.04600
C2589       C  0.23555881  0.75031821  0.08946631    -0.20100
C2590       C  0.24845477  0.76345242  0.11177581    -0.12400
C2591       C  0.24852465  0.75023033  0.13766322     0.13300
C2592       C  0.23480686  0.72497933  0.14068353    -0.22800
C2593       C  0.20714604  0.71242131  0.06859808    -0.05900
H2594       H  0.23548544  0.76019896  0.06955798     0.14800
C2595       C  0.26305066  0.76233260  0.16214988    -0.16100
H2596       H  0.23415621  0.71506769  0.16057790     0.09200
H2597       H  0.11897023  0.68568545  0.13280954     0.07000
H2598       H  0.13169126  0.69550593  0.16619095     0.08200
H2599       H  0.12009791  0.66104393  0.16008645     0.07300
H2600       H  0.25823107  0.66927589  0.13242450     0.02100
H2601       H  0.24793064  0.66138751  0.09767209     0.02600
H2602       H  0.25010508  0.63447378  0.12287410     0.06100
H2603       H  0.20985873  0.72478346  0.04964742     0.05100
H2604       H  0.18481507  0.71077844  0.07288644    -0.00700
H2605       H  0.21557638  0.69155241  0.06480274     0.00800
H2606       H  0.25288982  0.78169946  0.16858624     0.04500
H2607       H  0.28487190  0.76645650  0.15700399     0.06400
H2608       H  0.26262284  0.74814921  0.17998918     0.07300
C2609       C  0.27455475  0.58064400  0.27999506    -0.22300
C2610       C  0.28215548  0.60716785  0.28790778     0.09600
C2611       C  0.26544373  0.62969962  0.28069447     0.10000
C2612       C  0.24110049  0.62510395  0.26603274    -0.17300
C2613       C  0.23286083  0.59842838  0.25834892    -0.27700
C2614       C  0.25015045  0.57581983  0.26540155     0.18400
C2615       C  0.30801757  0.61126389  0.30330407     0.12300
C2616       C  0.27319150  0.65861721  0.28877524    -0.12000
H2617       H  0.22826612  0.64254150  0.26088839     0.12600
C2618       C  0.24311339  0.54639265  0.25847219    -0.22900
H2619       H  0.28774061  0.56358888  0.28556149     0.08300
C2620       C  0.30864988  0.61100228  0.33223774     0.04600
C2621       C  0.33227790  0.62041050  0.34589638    -0.20100
C2622       C  0.35471667  0.63086686  0.33111679    -0.12400
C2623       C  0.35480742  0.62879323  0.30214762     0.13300
C2624       C  0.33157859  0.61863542  0.28863678    -0.22800
C2625       C  0.28377110  0.60258598  0.34857129    -0.05900
H2626       H  0.33196365  0.62250935  0.36802405     0.14800
C2627       C  0.37829881  0.63909984  0.28481183    -0.16100
H2628       H  0.33108646  0.61845708  0.26641149     0.09200
H2629       H  0.22333862  0.54057489  0.26823269     0.07000
H2630       H  0.25892178  0.53178581  0.26600319     0.08200
H2631       H  0.24183117  0.54381303  0.23589951     0.07300
H2632       H  0.29328313  0.66414366  0.27951626     0.02100
H2633       H  0.27473323  0.66013268  0.31142803     0.02600
H2634       H  0.25775705  0.67385535  0.28173975     0.06100
H2635       H  0.28757211  0.60391651  0.37098100     0.05100
H2636       H  0.27819410  0.58102470  0.34353345    -0.00700
H2637       H  0.26622187  0.61624623  0.34357293     0.00800
H2638       H  0.38636096  0.62199519  0.27204859     0.04500
H2639       H  0.39548010  0.64728420  0.29723375     0.06400
H2640       H  0.37097748  0.65581269  0.27114562     0.07300
C2641       C  0.26007058  0.68571061  0.49859993    -0.22300
C2642       C  0.28528049  0.67178222  0.50019806     0.09600
C2643       C  0.28851227  0.65065123  0.51974936     0.10000
C2644       C  0.26580307  0.64229169  0.53550070    -0.17300
C2645       C  0.23981009  0.65420674  0.53176105    -0.27700
C2646       C  0.23723836  0.67705467  0.51407974     0.18400
C2647       C  0.30615255  0.67614188  0.47827021     0.12300
C2648       C  0.31535518  0.63553572  0.52246309    -0.12000
H2649       H  0.26768915  0.62447785  0.54874114     0.12600
C2650       C  0.21026551  0.69156540  0.51000202    -0.22900
H2651       H  0.25762867  0.70210099  0.48374664     0.08300
C2652       C  0.30368978  0.66237164  0.45288770     0.04600
C2653       C  0.32384287  0.66618654  0.43266625    -0.20100
C2654       C  0.34667607  0.68326815  0.43710324    -0.12400
C2655       C  0.34911120  0.69726081  0.46249814     0.13300
C2656       C  0.32888304  0.69332121  0.48286068    -0.22800
C2657       C  0.27986139  0.64336959  0.44720813    -0.05900
H2658       H  0.32182513  0.65563120  0.41318135     0.14800
C2659       C  0.37198909  0.71726699  0.46844529    -0.16100
H2660       H  0.33070855  0.70392270  0.50232831     0.09200
H2661       H  0.20366578  0.68946314  0.48832729     0.07000
H2662       H  0.21275088  0.71373449  0.51491139     0.08200
H2663       H  0.19381819  0.68324763  0.52340801     0.07300
H2664       H  0.33183714  0.65023696  0.52818358     0.02100
H2665       H  0.32073486  0.62556991  0.50269143     0.02600
H2666       H  0.31433443  0.61930875  0.53845300     0.06100
H2667       H  0.28124808  0.63399251  0.42648419     0.05100
H2668       H  0.26026655  0.65495080  0.44842281    -0.00700
H2669       H  0.27954941  0.62647894  0.46251422     0.00800
H2670       H  0.36312741  0.73773557  0.47332466     0.04500
H2671       H  0.38627676  0.72002182  0.45098781     0.06400
H2672       H  0.38395680  0.70996755  0.48637120     0.07300
C2673       C  0.03029266  0.75268021  0.57304285    -0.22300
C2674       C  0.03123121  0.72396958  0.56995801     0.09600
C2675       C  0.00727872  0.70835370  0.57489726     0.10000
C2676       C  0.98312013  0.72171729  0.58300060    -0.17300
C2677       C  0.98248068  0.75019501  0.58824035    -0.27700
C2678       C  0.00629779  0.76600069  0.58246951     0.18400
C2679       C  0.05787521  0.70992527  0.56470406     0.12300
C2680       C  0.00767832  0.67730301  0.57391548    -0.12000
H2681       H  0.96510732  0.70940275  0.58753981     0.12600
C2682       C  0.00725076  0.79646126  0.58804149    -0.22900
H2683       H  0.04884336  0.76449167  0.56950260     0.08300
C2684       C  0.06376765  0.69755151  0.53920992     0.04600
C2685       C  0.08543350  0.67853655  0.53734029    -0.20100
C2686       C  0.10209722  0.67250885  0.56008748    -0.12400
C2687       C  0.09804397  0.68730524  0.58473953     0.13300
C2688       C  0.07572930  0.70557830  0.58685073    -0.22800
C2689       C  0.04706468  0.70428258  0.51411354    -0.05900
H2690       H  0.08892255  0.66771130  0.51821947     0.14800
C2691       C  0.11620640  0.68280963  0.60928841    -0.16100
H2692       H  0.07134295  0.71547371  0.60628262     0.09200
H2693       H  0.02755847  0.80542716  0.58273853     0.07000
H2694       H  0.00342723  0.80045667  0.61013507     0.08200
H2695       H  0.99145093  0.80707864  0.57555221     0.07300
H2696       H  0.02307908  0.66933830  0.58867675     0.02100
H2697       H  0.01299482  0.66999319  0.55307108     0.02600
H2698       H  0.98742611  0.66833743  0.57943493     0.06100
H2699       H  0.05454625  0.69296047  0.49579436     0.05100
H2700       H  0.04858954  0.72665586  0.50981384    -0.00700
H2701       H  0.02517455  0.69889661  0.51726616     0.00800
H2702       H  0.10947251  0.69526739  0.62715953     0.04500
H2703       H  0.13759532  0.68884628  0.60419506     0.06400
H2704       H  0.11585104  0.66085485  0.61535841     0.07300
C2705       C  0.29211167  0.47613517  0.63120126    -0.22300
C2706       C  0.29165375  0.50375650  0.63942774     0.09600
C2707       C  0.30873660  0.51265672  0.66098372     0.10000
C2708       C  0.32561626  0.49348813  0.67427353    -0.17300
C2709       C  0.32600948  0.46574286  0.66620800    -0.27700
C2710       C  0.30913702  0.45695427  0.64431272     0.18400
C2711       C  0.27260140  0.52279537  0.62544911     0.12300
C2712       C  0.30915314  0.54233541  0.66985104    -0.12000
H2713       H  0.33856140  0.50015034  0.69108652     0.12600
C2714       C  0.30804712  0.42723088  0.63555961    -0.22900
H2715       H  0.27878964  0.46954442  0.61466171     0.08300
C2716       C  0.27912576  0.53434384  0.59981110     0.04600
C2717       C  0.25974691  0.55093062  0.58656339    -0.20100
C2718       C  0.23383137  0.55621873  0.59826436    -0.12400
C2719       C  0.22758254  0.54496737  0.62438942     0.13300
C2720       C  0.24713973  0.52839780  0.63760046    -0.22800
C2721       C  0.30651535  0.52906981  0.58642170    -0.05900
H2722       H  0.26486672  0.55967810  0.56677210     0.14800
C2723       C  0.20015515  0.54929289  0.63810574    -0.16100
H2724       H  0.24241193  0.51929844  0.65733479     0.09200
H2725       H  0.32839740  0.42065718  0.62769988     0.07000
H2726       H  0.29278758  0.42384329  0.61899205     0.08200
H2727       H  0.30214273  0.41414270  0.65326291     0.07300
H2728       H  0.28844191  0.54855131  0.67705694     0.02100
H2729       H  0.31526717  0.55555119  0.65231637     0.02600
H2730       H  0.32393031  0.54587597  0.68681890     0.06100
H2731       H  0.30841882  0.53992516  0.56648080     0.05100
H2732       H  0.30909825  0.50671115  0.58260773    -0.00700
H2733       H  0.32326322  0.53637070  0.60003161     0.00800
H2734       H  0.19857803  0.53779336  0.65771426     0.04500
H2735       H  0.18339527  0.54200470  0.62449110     0.06400
H2736       H  0.19724283  0.57141532  0.64289529     0.07300
C2737       C  0.01978674  0.51066047  0.62069381    -0.22300
C2738       C  0.03329319  0.52150595  0.64361958     0.09600
C2739       C  0.02103276  0.51946392  0.66960850     0.10000
C2740       C  0.99475461  0.50783777  0.67192123    -0.17300
C2741       C  0.98018255  0.49823777  0.64876048    -0.27700
C2742       C  0.99351527  0.49887576  0.62281308     0.18400
C2743       C  0.05900232  0.53712399  0.63906984     0.12300
C2744       C  0.03564259  0.52973756  0.69481082    -0.12000
H2745       H  0.98539632  0.50681880  0.69204885     0.12600
C2746       C  0.98041920  0.48780018  0.59706987    -0.22900
H2747       H  0.02964413  0.51219997  0.60080881     0.08300
C2748       C  0.08400003  0.52375073  0.63320279     0.04600
C2749       C  0.10586316  0.53904134  0.62223109    -0.20100
C2750       C  0.10310695  0.56729826  0.61702483    -0.12400
C2751       C  0.07898829  0.58106267  0.62539409     0.13300
C2752       C  0.05719990  0.56578014  0.63647997    -0.22800
C2753       C  0.08709223  0.49322500  0.63732621    -0.05900
H2754       H  0.12433532  0.52853467  0.61557296     0.14800
C2755       C  0.07541576  0.61146466  0.62072193    -0.16100
H2756       H  0.03795387  0.57590670  0.64126263     0.09200
H2757       H  0.99416416  0.48987644  0.57899788     0.07000
H2758       H  0.96132072  0.49934646  0.59248610     0.08200
H2759       H  0.97580008  0.46557105  0.59959141     0.07300
H2760       H  0.03961055  0.55214532  0.69297301     0.02100
H2761       H  0.05549925  0.51877481  0.69709785     0.02600
H2762       H  0.02334881  0.52622926  0.71367927     0.06100
H2763       H  0.10808250  0.48609073  0.63195817     0.05100
H2764       H  0.07222569  0.48196345  0.62424027    -0.00700
H2765       H  0.08318166  0.48806130  0.65915133     0.00800
H2766       H  0.07722132  0.61630060  0.59855582     0.04500
H2767       H  0.09144473  0.62276345  0.63227420     0.06400
H2768       H  0.05504811  0.61881701  0.62789961     0.07300
C2769       C  0.15728265  0.61930353  0.40553242    -0.22300
C2770       C  0.13094549  0.61304718  0.39580740     0.09600
C2771       C  0.10969497  0.60662206  0.41428203     0.10000
C2772       C  0.11579499  0.60472243  0.44217727    -0.17300
C2773       C  0.14268221  0.60887346  0.45180139    -0.27700
C2774       C  0.16344574  0.61752737  0.43345313     0.18400
C2775       C  0.12744550  0.60953895  0.36614808     0.12300
C2776       C  0.08080491  0.60132511  0.40452788    -0.12000
H2777       H  0.09975307  0.59857419  0.45633708     0.12600
C2778       C  0.19194619  0.62502897  0.44301772    -0.22900
H2779       H  0.17340530  0.62433581  0.39102295     0.08300
C2780       C  0.12932982  0.63188450  0.34794722     0.04600
C2781       C  0.13098379  0.62661145  0.31983743    -0.20100
C2782       C  0.13102232  0.59950010  0.30974316     0.02000
C2783       C  0.12690037  0.57727132  0.32799069     0.13300
C2784       C  0.12539691  0.58264560  0.35606854    -0.22800
C2785       C  0.12999602  0.66113102  0.35818812    -0.05900
H2786       H  0.13366958  0.64371549  0.30584060     0.14800
C2787       C  0.12393840  0.54795879  0.31823834    -0.16100
H2788       H  0.12380837  0.56566487  0.37038882     0.09200
H2789       H  0.19068156  0.64092403  0.45933039     0.07000
H2790       H  0.20461375  0.63351790  0.42605752     0.08200
H2791       H  0.20274623  0.60662165  0.45095294     0.07300
H2792       H  0.08024424  0.58307049  0.39089858     0.02100
H2793       H  0.07320290  0.61953560  0.39311169     0.02600
H2794       H  0.06657439  0.59740463  0.42190269     0.06100
H2795       H  0.13073015  0.67611906  0.34102652     0.05100
H2796       H  0.14839012  0.66456011  0.37113111    -0.00700
H2797       H  0.11125402  0.66532890  0.37047021     0.00800
H2798       H  0.14359520  0.54036854  0.30961610     0.04500
H2799       H  0.10757755  0.54675556  0.30248229     0.06400
H2800       H  0.11816712  0.53389336  0.33523727     0.07300
C2801       C  0.14181588  0.43045677  0.43486127    -0.22300
C2802       C  0.14024850  0.42809696  0.46349939     0.09600
C2803       C  0.13020495  0.40345418  0.47514780     0.10000
C2804       C  0.11916638  0.38308066  0.45793578    -0.17300
C2805       C  0.11826216  0.38671059  0.42940996    -0.27700
C2806       C  0.13106791  0.40992697  0.41768177     0.18400
C2807       C  0.14482409  0.45319680  0.48034475     0.12300
C2808       C  0.13024019  0.39906352  0.50571596    -0.12000
H2809       H  0.10917897  0.36527732  0.46689634     0.12600
C2810       C  0.13165639  0.41391422  0.38711470    -0.22900
H2811       H  0.14959221  0.44933037  0.42592899     0.08300
C2812       C  0.17073443  0.46591615  0.48258652     0.04600
C2813       C  0.17285045  0.49157601  0.49573296    -0.20100
C2814       C  0.14962889  0.50507563  0.50664694    -0.12400
C2815       C  0.12387060  0.49138951  0.50563515     0.13300
C2816       C  0.12187435  0.46584386  0.49230633    -0.22800
C2817       C  0.19613938  0.45244916  0.47114961    -0.05900
H2818       H  0.19274115  0.50153472  0.49660779     0.14800
C2819       C  0.09830087  0.50320605  0.51852648    -0.16100
H2820       H  0.10199240  0.45596630  0.49043476     0.09200
H2821       H  0.14215245  0.43334753  0.38129200     0.07000
H2822       H  0.11041385  0.41457295  0.37889781     0.08200
H2823       H  0.14301362  0.39658214  0.37760276     0.07300
H2824       H  0.11701035  0.41448595  0.51600637     0.02100
H2825       H  0.15153025  0.40097764  0.51360910     0.02600
H2826       H  0.12241986  0.37832217  0.51124320     0.06100
H2827       H  0.21487104  0.46475175  0.47546867     0.05100
H2828       H  0.19440325  0.45016737  0.44860242    -0.00700
H2829       H  0.19878527  0.43183395  0.48056222     0.00800
H2830       H  0.08081718  0.48854013  0.51761716     0.04500
H2831       H  0.09187140  0.52206987  0.50749535     0.06400
H2832       H  0.10217698  0.50796272  0.54045323     0.07300
loop_ 
_geom_bond_atom_site_label_1 
_geom_bond_atom_site_label_2 
_geom_bond_distance 
_geom_bond_site_symmetry_2 
_ccdc_geom_bond_type 
Fe1          O17   2.075       .  S
Fe1           O7   2.037       .  S
Fe1          O14   2.055       .  S
Fe1           O6   2.069       .  S
Fe1          O12   1.947       .  S
Fe2           O5   2.075       .  S
Fe2           O9   2.032       .  S
Fe2          O13   2.087       .  S
Fe2          O18   2.032       .  S
Fe2          O12   1.946       .  S
Fe3          O21   2.077       .  S
Fe3           O8   2.111       .  S
Fe3          O15   2.114       .  S
Fe3           O4   2.064       .  S
Fe3          O12   1.963       .  S
O4           C11   1.270       .  A
O5           C19   1.271       .  A
O6           C11   1.272       .  A
O7           C10   1.264       .  A
O8           C20   1.278       .  A
O9           C22   1.265       .  A
C10          O15   1.277       .  A
C10        C2645   1.476       .  S
C11        C2718   1.487       .  S
O13          C16   1.270       .  A
O14          C16   1.266       .  A
C16        C2814   1.496       .  S
O17          C22   1.272       .  A
O18          C20   1.265       .  A
C19          O21   1.272       .  A
C19        C2686   1.486       .  S
C20        C2750   1.470       .  S
C22        C2773   1.468       .  S
Fe23         O39   2.077       .  S
Fe23         O29   2.026       .  S
Fe23         O36   2.042       .  S
Fe23         O28   2.057       .  S
Fe23         O34   1.941       .  S
Fe24         O27   2.070       .  S
Fe24         O31   2.032       .  S
Fe24         O35   2.095       .  S
Fe24         O40   2.032       .  S
Fe24         O34   1.948       .  S
Fe25         O43   2.074       .  S
Fe25         O30   2.117       .  S
Fe25         O37   2.124       .  S
Fe25         O26   2.062       .  S
Fe25         O34   1.959       .  S
O26          C33   1.268       .  A
O27          C41   1.268       .  A
O28          C33   1.267       .  A
O29          C32   1.265       .  A
O30          C42   1.282       .  A
O31          C44   1.266       .  A
C32          O37   1.282       .  A
C32        C2485   1.485       .  S
C33        C2549   1.473       .  S
O35          C38   1.272       .  A
O36          C38   1.259       .  A
C38        C2613   1.496       .  S
O39          C44   1.273       .  A
O40          C42   1.268       .  A
C41          O43   1.269       .  A
C41        C2517   1.482       .  S
C42        C2581   1.469       .  S
C44        C2782   1.470       .  S
Fe45         O61   2.080       .  S
Fe45         O51   2.031       .  S
Fe45         O58   2.046       .  S
Fe45         O50   2.064       .  S
Fe45         O56   1.950       .  S
Fe46         O49   2.069       .  S
Fe46         O53   2.032       .  S
Fe46         O57   2.086       .  S
Fe46         O62   2.032       .  S
Fe46         O56   1.948       .  S
Fe47         O65   2.081       .  S
Fe47         O52   2.116       .  S
Fe47         O59   2.126       .  S
Fe47         O48   2.065       .  S
Fe47         O56   1.961       .  S
O48          C55   1.268       .  A
O49          C63   1.267       .  A
O50          C55   1.269       .  A
O51          C54   1.264       .  A
O52          C64   1.282       .  A
O53          C66   1.264       .  A
C54          O59   1.282       .  A
C54        C2293   1.483       .  S
C55        C2357   1.480       .  S
O57          C60   1.268       .  A
O58          C60   1.262       .  A
C60        C2462   1.490       .  S
O61          C66   1.276       .  A
O62          C64   1.268       .  A
C63          O65   1.270       .  A
C63        C2334   1.488       .  S
C64        C2389   1.470       .  S
C66        C2430   1.479       .  S
Fe67         O83   2.077       .  S
Fe67         O73   2.034       .  S
Fe67         O80   2.048       .  S
Fe67         O72   2.055       .  S
Fe67         O78   1.950       .  S
Fe68         O71   2.072       .  S
Fe68         O75   2.035       .  S
Fe68         O79   2.088       .  S
Fe68         O84   2.025       .  S
Fe68         O78   1.954       .  S
Fe69         O87   2.084       .  S
Fe69         O74   2.121       .  S
Fe69         O81   2.120       .  S
Fe69         O70   2.074       .  S
Fe69         O78   1.965       .  S
O70          C77   1.270       .  A
O71          C85   1.266       .  A
O72          C77   1.266       .  A
O73          C76   1.266       .  A
O74          C86   1.283       .  A
O75          C88   1.267       .  A
C76          O81   1.281       .  A
C76        C2133   1.491       .  S
C77        C2206   1.478       .  S
O79          C82   1.268       .  A
O80          C82   1.261       .  A
C82        C2261   1.493       .  S
O83          C88   1.276       .  A
O84          C86   1.268       .  A
C85          O87   1.269       .  A
C85        C2174   1.483       .  S
C86        C2229   1.470       .  S
C88        C2421   1.471       .  S
Fe89        O105   2.070       .  S
Fe89         O95   2.030       .  S
Fe89        O102   2.048       .  S
Fe89         O94   2.073       .  S
Fe89        O100   1.937       .  S
Fe90         O93   2.086       .  S
Fe90         O97   2.027       .  S
Fe90        O101   2.100       .  S
Fe90        O106   2.028       .  S
Fe90        O100   1.935       .  S
Fe91        O109   2.069       .  S
Fe91         O96   2.118       .  S
Fe91        O103   2.120       .  S
Fe91         O92   2.056       .  S
Fe91        O100   1.950       .  S
O92          C99   1.269       .  A
O93         C107   1.273       .  A
O94          C99   1.272       .  A
O95          C98   1.262       .  A
O96         C108   1.280       .  A
O97         C110   1.263       .  A
C98         O103   1.279       .  A
C98        C1941   1.474       .  S
C99        C2005   1.480       .  S
O101        C104   1.274       .  A
O102        C104   1.266       .  A
C104       C2110   1.490       .  S
O105        C110   1.270       .  A
O106        C108   1.265       .  A
C107        O109   1.270       .  A
C107       C1973   1.481       .  S
C108       C2046   1.470       .  S
C110       C2078   1.466       .  S
Fe111       O127   2.076       .  S
Fe111       O117   2.021       .  S
Fe111       O124   2.038       .  S
Fe111       O116   2.062       .  S
Fe111       O122   1.936       .  S
Fe112       O115   2.075       .  S
Fe112       O119   2.029       .  S
Fe112       O123   2.090       .  S
Fe112       O128   2.027       .  S
Fe112       O122   1.937       .  S
Fe113       O131   2.070       .  S
Fe113       O118   2.128       .  S
Fe113       O125   2.130       .  S
Fe113       O114   2.061       .  S
Fe113       O122   1.944       .  S
O114        C121   1.269       .  A
O115        C129   1.269       .  A
O116        C121   1.269       .  A
O117        C120   1.264       .  A
O118        C130   1.284       .  A
O119        C132   1.264       .  A
C120        O125   1.283       .  A
C120       C1790   1.485       .  S
C121       C1854   1.484       .  S
O123        C126   1.273       .  A
O124        C126   1.260       .  A
C126       C1918   1.485       .  S
O127        C132   1.272       .  A
O128        C130   1.266       .  A
C129        O131   1.269       .  A
C129       C1822   1.474       .  S
C130       C1886   1.475       .  S
C132       C2069   1.470       .  S
Fe133       O149   2.075       .  S
Fe133       O139   2.029       .  S
Fe133       O146   2.047       .  S
Fe133       O138   2.065       .  S
Fe133       O144   1.945       .  S
Fe134       O137   2.079       .  S
Fe134       O141   2.024       .  S
Fe134       O145   2.097       .  S
Fe134       O150   2.029       .  S
Fe134       O144   1.944       .  S
Fe135       O153   2.074       .  S
Fe135       O140   2.121       .  S
Fe135       O147   2.127       .  S
Fe135       O136   2.061       .  S
Fe135       O144   1.954       .  S
O136        C143   1.268       .  A
O137        C151   1.270       .  A
O138        C143   1.270       .  A
O139        C142   1.264       .  A
O140        C152   1.282       .  A
O141        C154   1.263       .  A
C142        O147   1.282       .  A
C142       C1621   1.482       .  S
C143       C1694   1.479       .  S
O145        C148   1.274       .  A
O146        C148   1.261       .  A
C148       C2238   1.500       .  S
O149        C154   1.272       .  A
O150        C152   1.266       .  A
C151        O153   1.270       .  A
C151       C1653   1.486       .  S
C152       C1717   1.472       .  S
C154       C1749   1.463       .  S
Fe155       O171   2.077       .  S
Fe155       O161   2.034       .  S
Fe155       O168   2.049       .  S
Fe155       O160   2.069       .  S
Fe155       O166   1.936       .  S
Fe156       O159   2.076       .  S
Fe156       O163   2.029       .  S
Fe156       O167   2.089       .  S
Fe156       O172   2.025       .  S
Fe156       O166   1.938       .  S
Fe157       O175   2.082       .  S
Fe157       O162   2.126       .  S
Fe157       O169   2.128       .  S
Fe157       O158   2.065       .  S
Fe157       O166   1.947       .  S
O158        C165   1.271       .  A
O159        C173   1.270       .  A
O160        C165   1.270       .  A
O161        C164   1.265       .  A
O162        C174   1.283       .  A
O163        C176   1.266       .  A
C164        O169   1.282       .  A
C164       C2165   1.482       .  S
C165       C1525   1.483       .  S
O167        C170   1.271       .  A
O168        C170   1.262       .  A
C170       C1589   1.494       .  S
O171        C176   1.273       .  A
O172        C174   1.266       .  A
C173        O175   1.271       .  A
C173       C1493   1.488       .  S
C174       C1557   1.473       .  S
C176       C1758   1.470       .  S
Fe177       O193   2.074       .  S
Fe177       O183   2.029       .  S
Fe177       O190   2.044       .  S
Fe177       O182   2.054       .  S
Fe177       O188   1.955       .  S
Fe178       O181   2.066       .  S
Fe178       O185   2.031       .  S
Fe178       O189   2.084       .  S
Fe178       O194   2.031       .  S
Fe178       O188   1.954       .  S
Fe179       O197   2.080       .  S
Fe179       O184   2.115       .  S
Fe179       O191   2.116       .  S
Fe179       O180   2.066       .  S
Fe179       O188   1.966       .  S
O180        C187   1.268       .  A
O181        C195   1.265       .  A
O182        C187   1.267       .  A
O183        C186   1.264       .  A
O184        C196   1.283       .  A
O185        C198   1.267       .  A
C186        O191   1.280       .  A
C186       C1333   1.476       .  S
C187       C1397   1.475       .  S
O189        C192   1.267       .  A
O190        C192   1.261       .  A
C192       C2590   1.487       .  S
O193        C198   1.272       .  A
O194        C196   1.269       .  A
C195        O197   1.268       .  A
C195       C1365   1.490       .  S
C196       C1429   1.470       .  S
C198       C1470   1.475       .  S
Fe199       O215   2.080   1_655  S
Fe199       O205   2.028       .  S
Fe199       O212   2.045       .  S
Fe199       O204   2.068       .  S
Fe199       O210   1.936       .  S
Fe200       O203   2.084       .  S
Fe200       O207   2.027   1_655  S
Fe200       O211   2.094       .  S
Fe200       O216   2.026       .  S
Fe200       O210   1.937       .  S
Fe201       O219   2.074       .  S
Fe201       O206   2.117       .  S
Fe201       O213   2.115       .  S
Fe201       O202   2.058       .  S
Fe201       O210   1.947       .  S
O202        C209   1.269       .  A
O203        C217   1.273       .  A
O204        C209   1.272       .  A
O205        C208   1.264       .  A
O206        C218   1.280       .  A
O207        C220   1.265       .  A
C208        O213   1.278       .  A
C208       C2526   1.486       .  S
C209       C1237   1.477       .  S
O211        C214   1.273       .  A
O212        C214   1.261       .  A
C214       C1301   1.496   1_655  S
O215        C220   1.274       .  A
O216        C218   1.266       .  A
C217        O219   1.270       .  A
C217       C1205   1.488       .  S
C218       C1278   1.475       .  S
C220       C1461   1.464       .  S
Fe221       O237   2.066   1_545  S
Fe221       O227   2.024       .  S
Fe221       O234   2.049       .  S
Fe221       O226   2.052       .  S
Fe221       O232   1.960       .  S
Fe222       O225   2.067       .  S
Fe222       O229   2.028   1_545  S
Fe222       O233   2.087   1_545  S
Fe222       O238   2.027       .  S
Fe222       O232   1.955       .  S
Fe223       O241   2.084       .  S
Fe223       O228   2.118       .  S
Fe223       O235   2.129       .  S
Fe223       O224   2.062       .  S
Fe223       O232   1.967       .  S
O224        C231   1.267       .  A
O225        C239   1.265       .  A
O226        C231   1.265       .  A
O227        C230   1.264       .  A
O228        C240   1.283       .  A
O229        C242   1.265       .  A
C230        O235   1.283       .  A
C230       C1374   1.486       .  S
C231       C1845   1.472       .  S
O233        C236   1.269       .  A
O234        C236   1.263   1_545  A
C236       C1726   1.486       .  S
O237        C242   1.269       .  A
O238        C240   1.268       .  A
C239        O241   1.269       .  A
C239       C2302   1.486       .  S
C240       C2270   1.470       .  S
C242       C1173   1.474       .  S
Fe243       O259   2.082       .  S
Fe243       O249   2.027       .  S
Fe243       O256   2.054       .  S
Fe243       O248   2.065       .  S
Fe243       O254   1.939       .  S
Fe244       O247   2.075       .  S
Fe244       O251   2.022       .  S
Fe244       O255   2.084       .  S
Fe244       O260   2.015       .  S
Fe244       O254   1.940       .  S
Fe245       O263   2.081       .  S
Fe245       O250   2.130       .  S
Fe245       O257   2.123       .  S
Fe245       O246   2.065       .  S
Fe245       O254   1.949       .  S
O246        C253   1.270       .  A
O247        C261   1.267       .  A
O248        C253   1.271       .  A
O249        C252   1.265       .  A
O250        C262   1.285       .  A
O251        C264   1.265       .  A
C252        O257   1.281       .  A
C252       C1662   1.489       .  S
C253       C2014   1.483       .  S
O255        C258   1.269       .  A
O256        C258   1.262       .  A
C258       C1438   1.493       .  S
O259        C264   1.276       .  A
O260        C262   1.265       .  A
C261        O263   1.270       .  A
C261       C2654   1.485       .  S
C262       C2622   1.470       .  S
C264       C1182   1.457       .  S
Fe265       O281   2.069       .  S
Fe265       O271   2.035       .  S
Fe265       O278   2.046       .  S
Fe265       O270   2.062       .  S
Fe265       O276   1.952       .  S
Fe266       O269   2.066       .  S
Fe266       O273   2.032       .  S
Fe266       O277   2.087       .  S
Fe266       O282   2.026       .  S
Fe266       O276   1.952       .  S
Fe267       O285   2.081       .  S
Fe267       O272   2.111       .  S
Fe267       O279   2.116       .  S
Fe267       O268   2.064       .  S
Fe267       O276   1.968       .  S
O268        C275   1.270       .  A
O269        C283   1.268       .  A
O270        C275   1.268       .  A
O271        C274   1.264       .  A
O272        C284   1.278       .  A
O273        C286   1.264       .  A
C274        O279   1.278       .  A
C274       C1502   1.477       .  S
C275       C1406   1.475       .  S
O277        C280   1.270       .  A
O278        C280   1.264       .  A
C280       C2037   1.493       .  S
O281        C286   1.270       .  A
O282        C284   1.265       .  A
C283        O285   1.272       .  A
C283       C1077   1.478       .  S
C284       C1109   1.472       .  S
C286       C1141   1.466       .  S
Fe287       O303   2.073       .  S
Fe287       O293   2.023       .  S
Fe287       O300   2.046       .  S
Fe287       O292   2.059       .  S
Fe287       O298   1.941       .  S
Fe288       O291   2.071       .  S
Fe288       O295   2.030       .  S
Fe288       O299   2.096       .  S
Fe288       O304   2.026       .  S
Fe288       O298   1.940       .  S
Fe289       O307   2.083       .  S
Fe289       O294   2.116       .  S
Fe289       O301   2.128       .  S
Fe289       O290   2.064       .  S
Fe289       O298   1.956       .  S
O290        C297   1.269       .  A
O291        C305   1.269       .  A
O292        C297   1.268       .  A
O293        C296   1.265       .  A
O294        C306   1.281       .  A
O295        C308   1.264       .  A
C296        O301   1.282       .  A
C296       C1982   1.485       .  S
C297       C1246   1.477       .  S
O299        C302   1.274       .  A
O300        C302   1.262       .  A
C302       C1566   1.499       .  S
O303        C308   1.270       .  A
O304        C306   1.266       .  A
C305        O307   1.272       .  A
C305       C1013   1.487       .  S
C306       C1045   1.469       .  S
C308       C1150   1.474       .  S
Fe309       O325   2.072   1_554  S
Fe309       O315   2.024       .  S
Fe309       O322   2.041       .  S
Fe309       O314   2.061       .  S
Fe309       O320   1.938       .  S
Fe310       O313   2.078       .  S
Fe310       O317   2.027   1_554  S
Fe310       O321   2.100       .  S
Fe310       O326   2.029       .  S
Fe310       O320   1.941       .  S
Fe311       O329   2.079       .  S
Fe311       O316   2.126       .  S
Fe311       O323   2.137       .  S
Fe311       O312   2.064       .  S
Fe311       O320   1.952       .  S
O312        C319   1.269       .  A
O313        C327   1.270       .  A
O314        C319   1.269       .  A
O315        C318   1.264       .  A
O316        C328   1.283       .  A
O317        C330   1.262       .  A
C318        O323   1.283       .  A
C318        C958   1.495       .  S
C319       C2558   1.481       .  S
O321        C324   1.275       .  A
O322        C324   1.260       .  A
C324       C1118   1.496       .  S
O325        C330   1.273       .  A
O326        C328   1.266       .  A
C327        O329   1.272       .  A
C327       C1781   1.483       .  S
C328       C2101   1.473       .  S
C330        C990   1.468       .  S
Fe331       O347   2.070       .  S
Fe331       O337   2.032       .  S
Fe331       O344   2.054       .  S
Fe331       O336   2.063       .  S
Fe331       O342   1.949       .  S
Fe332       O335   2.069       .  S
Fe332       O339   2.033       .  S
Fe332       O343   2.088       .  S
Fe332       O348   2.031       .  S
Fe332       O342   1.948       .  S
Fe333       O351   2.086       .  S
Fe333       O338   2.111       .  S
Fe333       O345   2.119       .  S
Fe333       O334   2.067       .  S
Fe333       O342   1.959       .  S
O334        C341   1.269       .  A
O335        C349   1.267       .  A
O336        C341   1.268       .  A
O337        C340   1.265       .  A
O338        C350   1.280       .  A
O339        C352   1.264       .  A
C340        O345   1.280       .  A
C340       C1086   1.481       .  S
C341       C2709   1.476       .  S
O343        C346   1.269       .  A
O344        C346   1.265       .  A
C346        C926   1.498       .  S
O347        C352   1.273       .  A
O348        C350   1.268       .  A
C349        O351   1.272       .  A
C349       C2142   1.487       .  S
C350       C2453   1.468       .  S
C352        C981   1.467       .  S
Fe353       O369   2.063       .  S
Fe353       O359   2.030       .  S
Fe353       O366   2.048       .  S
Fe353       O358   2.044       .  S
Fe353       O364   1.951       .  S
Fe354       O357   2.062       .  S
Fe354       O361   2.036       .  S
Fe354       O365   2.086       .  S
Fe354       O370   2.026       .  S
Fe354       O364   1.950       .  S
Fe355       O373   2.093       .  S
Fe355       O360   2.118       .  S
Fe355       O367   2.129       .  S
Fe355       O356   2.075       .  S
Fe355       O364   1.962       .  S
O356        C363   1.269       .  A
O357        C371   1.267       .  A
O358        C363   1.264       .  A
O359        C362   1.265       .  A
O360        C372   1.283       .  A
O361        C374   1.265       .  A
C362        O367   1.284       .  A
C362        C821   1.481       .  S
C363        C853   1.484       .  S
O365        C368   1.270       .  A
O366        C368   1.264       .  A
C368       C2398   1.491       .  S
O369        C374   1.268       .  A
O370        C372   1.267       .  A
C371        O373   1.273       .  A
C371        C949   1.495       .  S
C372        C917   1.473       .  S
C374        C894   1.468       .  S
Fe375       O391   2.072   1_565  S
Fe375       O381   2.037       .  S
Fe375       O388   2.054       .  S
Fe375       O380   2.053       .  S
Fe375       O386   1.949       .  S
Fe376       O379   2.068       .  S
Fe376       O383   2.037       .  S
Fe376       O387   2.078       .  S
Fe376       O392   2.027       .  S
Fe376       O386   1.951       .  S
Fe377       O395   2.083       .  S
Fe377       O382   2.119       .  S
Fe377       O389   2.114       .  S
Fe377       O378   2.073       .  S
Fe377       O386   1.963       .  S
O378        C385   1.270       .  A
O379        C393   1.266       .  A
O380        C385   1.268       .  A
O381        C384   1.266       .  A
O382        C394   1.282       .  A
O383        C396   1.269   1_565  A
C384        O389   1.279       .  A
C384       C2325   1.487       .  S
C385        C757   1.481       .  S
O387        C390   1.268       .  A
O388        C390   1.261       .  A
C390        C798   1.491       .  S
O391        C396   1.273       .  A
O392        C394   1.268       .  A
C393        O395   1.270       .  A
C393       C1342   1.485       .  S
C394       C1310   1.469       .  S
C396        C885   1.468       .  S
Fe397       O413   2.073       .  S
Fe397       O403   2.029       .  S
Fe397       O410   2.045       .  S
Fe397       O402   2.065       .  S
Fe397       O408   1.935       .  S
Fe398       O401   2.078       .  S
Fe398       O405   2.030       .  S
Fe398       O409   2.091       .  S
Fe398       O414   2.021       .  S
Fe398       O408   1.941       .  S
Fe399       O417   2.091       .  S
Fe399       O404   2.120       .  S
Fe399       O411   2.121       .  S
Fe399       O400   2.067       .  S
Fe399       O408   1.954       .  S
O400        C407   1.271       .  A
O401        C415   1.271       .  A
O402        C407   1.269       .  A
O403        C406   1.265       .  A
O404        C416   1.281       .  A
O405        C418   1.265       .  A
C406        O411   1.280       .  A
C406       C2677   1.492       .  S
C407        C766   1.476       .  S
O409        C412   1.270       .  A
O410        C412   1.263       .  A
C412       C1054   1.491       .  S
O413        C418   1.273       .  A
O414        C416   1.265       .  A
C415        O417   1.274       .  A
C415       C1630   1.490       .  S
C416       C1598   1.471       .  S
C418        C725   1.460       .  S
Fe419       O435   2.045       .  S
Fe419       O425   2.055       .  S
Fe419       O432   2.061       .  S
Fe419       O424   2.032       .  S
Fe419       O430   1.948       .  S
Fe420       O423   2.064       .  S
Fe420       O427   2.063       .  S
Fe420       O431   2.070       .  S
Fe420       O436   2.055       .  S
Fe420       O430   1.938       .  S
Fe421       O439   2.087       .  S
Fe421       O426   2.088       .  S
Fe421       O433   2.100       .  S
Fe421       O422   2.099       .  S
Fe421       O430   1.945       .  S
O422        C429   1.277       .  A
O423        C437   1.267       .  A
O424        C429   1.267       .  A
O425        C428   1.263       .  A
O426        C438   1.278       .  A
O427        C440   1.274       .  A
C428        O433   1.274       .  A
C428       C1022   1.476       .  S
C429        C862   1.471       .  S
O431        C434   1.266       .  A
O432        C434   1.266       .  A
C434       C2741   1.498       .  S
O435        C440   1.268       .  A
O436        C438   1.271       .  A
C437        O439   1.273       .  A
C437        C661   1.493       .  S
C438        C702   1.471       .  S
C440        C734   1.470       .  S
Fe441       O457   2.080   1_455  S
Fe441       O447   2.029       .  S
Fe441       O454   2.043       .  S
Fe441       O446   2.063       .  S
Fe441       O452   1.957       .  S
Fe442       O445   2.064       .  S
Fe442       O449   2.031       .  S
Fe442       O453   2.083       .  S
Fe442       O458   2.031       .  S
Fe442       O452   1.958       .  S
Fe443       O461   2.089       .  S
Fe443       O448   2.114       .  S
Fe443       O455   2.115       .  S
Fe443       O444   2.070       .  S
Fe443       O452   1.975       .  S
O444        C451   1.271       .  A
O445        C459   1.267       .  A
O446        C451   1.268       .  A
O447        C450   1.264       .  A
O448        C460   1.279       .  A
O449        C462   1.262   1_455  A
C450        O455   1.278       .  A
C450        C597   1.483       .  S
C451       C2366   1.481       .  S
O453        C456   1.268       .  A
O454        C456   1.262       .  A
C456        C693   1.492       .  S
O457        C462   1.275       .  A
O458        C460   1.266       .  A
C459        O461   1.272       .  A
C459       C2494   1.486       .  S
C460       C2805   1.473       .  S
C462        C629   1.480       .  S
Fe463       O479   2.081       .  S
Fe463       O469   2.034       .  S
Fe463       O476   2.050       .  S
Fe463       O468   2.075       .  S
Fe463       O474   1.936       .  S
Fe464       O467   2.076       .  S
Fe464       O471   2.033       .  S
Fe464       O475   2.087       .  S
Fe464       O480   2.025       .  S
Fe464       O474   1.940       .  S
Fe465       O483   2.080       .  S
Fe465       O470   2.112       .  S
Fe465       O477   2.111       .  S
Fe465       O466   2.062       .  S
Fe465       O474   1.952       .  S
O466        C473   1.271       .  A
O467        C481   1.270       .  A
O468        C473   1.273       .  A
O469        C472   1.264       .  A
O470        C482   1.279       .  A
O471        C484   1.265       .  A
C472        O477   1.277       .  A
C472        C670   1.482       .  S
C473       C2197   1.482       .  S
O475        C478   1.271       .  A
O476        C478   1.261       .  A
C478        C565   1.497       .  S
O479        C484   1.277       .  A
O480        C482   1.265       .  A
C481        O483   1.272       .  A
C481       C1950   1.482       .  S
C482       C1909   1.465       .  S
C484        C638   1.472       .  S
Fe485       O501   2.075       .  S
Fe485       O491   2.027       .  S
Fe485       O498   2.048       .  S
Fe485       O490   2.065       .  S
Fe485       O496   1.947       .  S
Fe486       O489   2.072       .  S
Fe486       O493   2.032       .  S
Fe486       O497   2.096       .  S
Fe486       O502   2.030       .  S
Fe486       O496   1.947       .  S
Fe487       O505   2.074       .  S
Fe487       O492   2.115       .  S
Fe487       O499   2.117       .  S
Fe487       O488   2.060       .  S
Fe487       O496   1.962       .  S
O488        C495   1.268       .  A
O489        C503   1.269       .  A
O490        C495   1.270       .  A
O491        C494   1.263       .  A
O492        C504   1.280       .  A
O493        C506   1.264       .  A
C494        O499   1.279       .  A
C494       C1214   1.473       .  S
C495       C1685   1.483       .  S
O497        C500   1.273       .  A
O498        C500   1.263       .  A
C500       C1877   1.496       .  S
O501        C506   1.271       .  A
O502        C504   1.267       .  A
C503        O505   1.269       .  A
C503        C606   1.480       .  S
C504        C574   1.473       .  S
C506        C533   1.475       .  S
Fe507       O523   2.078   1_556  S
Fe507       O513   2.037       .  S
Fe507       O520   2.045       .  S
Fe507       O512   2.080       .  S
Fe507       O518   1.937       .  S
Fe508       O511   2.088       .  S
Fe508       O515   2.033   1_556  S
Fe508       O519   2.096       .  S
Fe508       O524   2.022       .  S
Fe508       O518   1.938       .  S
Fe509       O527   2.078       .  S
Fe509       O514   2.119       .  S
Fe509       O521   2.119       .  S
Fe509       O510   2.056       .  S
Fe509       O518   1.948       .  S
O510        C517   1.270       .  A
O511        C525   1.273       .  A
O512        C517   1.271       .  A
O513        C516   1.265       .  A
O514        C526   1.279       .  A
O515        C528   1.264       .  A
C516        O521   1.279       .  A
C516       C1813   1.478       .  S
C517       C1534   1.486       .  S
O519        C522   1.273   1_556  A
O520        C522   1.265   1_556  A
C522       C1269   1.493       .  S
O523        C528   1.272       .  A
O524        C526   1.264       .  A
C525        O527   1.272       .  A
C525        C830   1.482       .  S
C526        C789   1.474       .  S
C528        C542   1.468       .  S
C529        C530   1.400       .  A
C529        C534   1.399       .  A
C529        H539   1.084       .  S
C530        C535   1.466       .  S
C530        C531   1.405       .  A
C531        C532   1.396       .  A
C531        C536   1.507       .  S
C532        C533   1.408       .  A
C532        H537   1.084       .  S
C533        C534   1.417       .  A
C534        C538   1.510       .  S
C535        C540   1.405       .  A
C535        C544   1.401       .  A
C536        H552   1.109       .  S
C536        H553   1.110       .  S
C536        H554   1.111       .  S
C538        H549   1.111       .  S
C538        H550   1.109       .  S
C538        H551   1.111       .  S
C540        C541   1.399       .  A
C540        C545   1.506       .  S
C541        C542   1.407       .  A
C541        H546   1.084       .  S
C542        C543   1.412       .  A
C543        C544   1.396       .  A
C543        C547   1.507       .  S
C544        H548   1.085       .  S
C545        H555   1.111       .  S
C545        H556   1.110       .  S
C545        H557   1.110       .  S
C547        H558   1.111       .  S
C547        H559   1.109       .  S
C547        H560   1.108       .  S
C561        C562   1.398       .  A
C561        C566   1.408       .  A
C561        H571   1.084       .  S
C562        C567   1.482       .  S
C562        C563   1.410       .  A
C563        C564   1.402       .  A
C563        C568   1.508       .  S
C564        C565   1.409       .  A
C564        H569   1.083       .  S
C565        C566   1.426       .  A
C566        C570   1.508       .  S
C567        C572   1.412       .  A
C567        C576   1.399       .  A
C568        H584   1.110       .  S
C568        H585   1.110       .  S
C568        H586   1.111       .  S
C570        H581   1.110       .  S
C570        H582   1.111       .  S
C570        H583   1.110       .  S
C572        C573   1.407       .  A
C572        C577   1.506       .  S
C573        C574   1.403       .  A
C573        H578   1.084       .  S
C574        C575   1.416       .  A
C575        C576   1.401       .  A
C575        C579   1.508       .  S
C576        H580   1.085       .  S
C577        H587   1.111       .  S
C577        H588   1.110       .  S
C577        H589   1.110       .  S
C579        H590   1.110       .  S
C579        H591   1.109       .  S
C579        H592   1.111       .  S
C593        C594   1.399   1_655  A
C593        C598   1.400   1_655  A
C593        H603   1.085       .  S
C594        C599   1.487   1_455  S
C594        C595   1.413       .  A
C595        C596   1.412       .  A
C595        C600   1.505       .  S
C596        C597   1.407       .  A
C596        H601   1.084       .  S
C597        C598   1.418       .  A
C598        C602   1.509   1_455  S
C599        C604   1.415       .  A
C599        C608   1.401       .  A
C600        H616   1.110       .  S
C600        H617   1.109       .  S
C600        H618   1.111       .  S
C602        H613   1.111       .  S
C602        H614   1.110       .  S
C602        H615   1.109       .  S
C604        C605   1.407       .  A
C604        C609   1.508       .  S
C605        C606   1.403       .  A
C605        H610   1.084       .  S
C606        C607   1.416       .  A
C607        C608   1.405       .  A
C607        C611   1.507       .  S
C608        H612   1.084       .  S
C609        H619   1.111       .  S
C609        H620   1.110       .  S
C609        H621   1.109   1_655  S
C611        H622   1.110       .  S
C611        H623   1.108       .  S
C611        H624   1.110       .  S
C625        C626   1.395       .  A
C625        C630   1.400       .  A
C625        H635   1.084       .  S
C626        C631   1.467       .  S
C626        C627   1.409       .  A
C627        C628   1.396       .  A
C627        C632   1.509       .  S
C628        C629   1.404       .  A
C628        H633   1.084       .  S
C629        C630   1.425       .  A
C630        C634   1.509       .  S
C631        C636   1.410       .  A
C631        C640   1.397       .  A
C632        H648   1.110       .  S
C632        H649   1.110       .  S
C632        H650   1.111       .  S
C634        H645   1.110       .  S
C634        H646   1.111       .  S
C634        H647   1.110       .  S
C636        C637   1.395       .  A
C636        C641   1.508       .  S
C637        C638   1.402       .  A
C637        H642   1.084       .  S
C638        C639   1.420       .  A
C639        C640   1.400       .  A
C639        C643   1.508       .  S
C640        H644   1.084       .  S
C641        H651   1.111       .  S
C641        H652   1.110       .  S
C641        H653   1.110       .  S
C643        H654   1.111       .  S
C643        H655   1.110       .  S
C643        H656   1.110       .  S
C657        C658   1.402       .  A
C657        C662   1.411       .  A
C657        H667   1.084       .  S
C658        C663   1.488       .  S
C658        C659   1.412       .  A
C659        C660   1.403       .  A
C659        C664   1.508       .  S
C660        C661   1.407       .  A
C660        H665   1.084       .  S
C661        C662   1.421       .  A
C662        C666   1.507       .  S
C663        C668   1.412       .  A
C663        C672   1.401       .  A
C664        H680   1.110       .  S
C664        H681   1.109       .  S
C664        H682   1.111       .  S
C666        H677   1.111       .  S
C666        H678   1.109       .  S
C666        H679   1.110       .  S
C668        C669   1.410       .  A
C668        C673   1.505       .  S
C669        C670   1.406       .  A
C669        H674   1.084       .  S
C670        C671   1.417       .  A
C671        C672   1.402       .  A
C671        C675   1.508       .  S
C672        H676   1.085       .  S
C673        H683   1.111       .  S
C673        H684   1.110       .  S
C673        H685   1.109       .  S
C675        H686   1.110       .  S
C675        H687   1.109       .  S
C675        H688   1.111       .  S
C689        C690   1.402       .  A
C689        C694   1.407   1_655  A
C689        H699   1.084       .  S
C690        C695   1.481       .  S
C690        C691   1.406       .  A
C691        C692   1.402       .  A
C691        C696   1.507       .  S
C692        C693   1.411   1_655  A
C692        H697   1.084       .  S
C693        C694   1.420       .  A
C694        C698   1.508       .  S
C695        C700   1.411       .  A
C695        C704   1.400       .  A
C696        H712   1.110       .  S
C696        H713   1.110       .  S
C696        H714   1.111       .  S
C698        H709   1.111       .  S
C698        H710   1.111       .  S
C698        H711   1.109       .  S
C700        C701   1.407       .  A
C700        C705   1.505       .  S
C701        C702   1.404       .  A
C701        H706   1.084       .  S
C702        C703   1.415       .  A
C703        C704   1.399       .  A
C703        C707   1.508       .  S
C704        H708   1.085       .  S
C705        H715   1.111       .  S
C705        H716   1.110   1_655  S
C705        H717   1.110       .  S
C707        H718   1.110       .  S
C707        H719   1.107       .  S
C707        H720   1.110       .  S
C721        C722   1.401       .  A
C721        C726   1.394       .  A
C721        H731   1.085       .  S
C722        C727   1.462       .  S
C722        C723   1.403       .  A
C723        C724   1.398       .  A
C723        C728   1.505       .  S
C724        C725   1.407       .  A
C724        H729   1.084       .  S
C725        C726   1.410       .  A
C726        C730   1.509       .  S
C727        C732   1.403       .  A
C727        C736   1.400       .  A
C728        H744   1.110       .  S
C728        H745   1.110       .  S
C728        H746   1.111       .  S
C730        H741   1.110       .  S
C730        H742   1.111       .  S
C730        H743   1.109       .  S
C732        C733   1.395       .  A
C732        C737   1.507       .  S
C733        C734   1.406       .  A
C733        H738   1.084       .  S
C734        C735   1.415       .  A
C735        C736   1.398       .  A
C735        C739   1.508       .  S
C736        H740   1.085       .  S
C737        H747   1.111       .  S
C737        H748   1.110       .  S
C737        H749   1.110       .  S
C739        H750   1.110       .  S
C739        H751   1.110       .  S
C739        H752   1.111       .  S
C753        C754   1.401       .  A
C753        C758   1.406       .  A
C753        H763   1.084       .  S
C754        C759   1.476       .  S
C754        C755   1.408       .  A
C755        C756   1.398       .  A
C755        C760   1.508   1_455  S
C756        C757   1.406       .  A
C756        H761   1.084       .  S
C757        C758   1.417       .  A
C758        C762   1.506       .  S
C759        C764   1.411       .  A
C759        C768   1.397       .  A
C760        H776   1.110       .  S
C760        H777   1.110       .  S
C760        H778   1.111       .  S
C762        H773   1.111       .  S
C762        H774   1.109       .  S
C762        H775   1.109       .  S
C764        C765   1.405   1_455  A
C764        C769   1.506       .  S
C765        C766   1.404       .  A
C765        H770   1.084       .  S
C766        C767   1.417       .  A
C767        C768   1.399   1_655  A
C767        C771   1.508       .  S
C768        H772   1.084       .  S
C769        H779   1.111       .  S
C769        H780   1.110       .  S
C769        H781   1.110       .  S
C771        H782   1.109       .  S
C771        H783   1.110       .  S
C771        H784   1.111       .  S
C785        C786   1.399       .  A
C785        C790   1.400       .  A
C785        H795   1.085   1_545  S
C786        C791   1.482       .  S
C786        C787   1.414       .  A
C787        C788   1.407       .  A
C787        C792   1.507       .  S
C788        C789   1.403       .  A
C788        H793   1.082       .  S
C789        C790   1.416       .  A
C790        C794   1.508       .  S
C791        C796   1.411       .  A
C791        C800   1.401   1_545  A
C792        H808   1.110       .  S
C792        H809   1.109       .  S
C792        H810   1.111       .  S
C794        H805   1.110       .  S
C794        H806   1.110       .  S
C794        H807   1.110       .  S
C796        C797   1.400   1_655  A
C796        C801   1.510       .  S
C797        C798   1.408   1_545  A
C797        H802   1.084       .  S
C798        C799   1.422   1_455  A
C799        C800   1.409       .  A
C799        C803   1.508       .  S
C800        H804   1.084       .  S
C801        H811   1.111   1_655  S
C801        H812   1.110       .  S
C801        H813   1.108       .  S
C803        H814   1.111       .  S
C803        H815   1.111   1_655  S
C803        H816   1.109   1_655  S
C817        C818   1.403       .  A
C817        C822   1.409       .  A
C817        H827   1.084       .  S
C818        C823   1.492       .  S
C818        C819   1.413       .  A
C819        C820   1.408   1_655  A
C819        C824   1.507   1_655  S
C820        C821   1.405       .  A
C820        H825   1.084       .  S
C821        C822   1.418   1_455  A
C822        C826   1.507       .  S
C823        C828   1.413       .  A
C823        C832   1.402       .  A
C824        H840   1.110   1_455  S
C824        H841   1.110   1_455  S
C824        H842   1.111       .  S
C826        H837   1.110       .  S
C826        H838   1.111       .  S
C826        H839   1.108   1_655  S
C828        C829   1.412       .  A
C828        C833   1.504       .  S
C829        C830   1.406       .  A
C829        H834   1.084       .  S
C830        C831   1.415       .  A
C831        C832   1.404       .  A
C831        C835   1.506       .  S
C832        H836   1.085       .  S
C833        H843   1.111   1_556  S
C833        H844   1.110       .  S
C833        H845   1.110       .  S
C835        H846   1.110       .  S
C835        H847   1.107       .  S
C835        H848   1.110       .  S
C849        C850   1.402   1_455  A
C849        C854   1.406       .  A
C849        H859   1.084   1_455  S
C850        C855   1.475       .  S
C850        C851   1.406   1_655  A
C851        C852   1.397       .  A
C851        C856   1.508   1_455  S
C852        C853   1.409       .  A
C852        H857   1.084       .  S
C853        C854   1.417       .  A
C854        C858   1.506       .  S
C855        C860   1.410       .  A
C855        C864   1.399       .  A
C856        H872   1.110   1_655  S
C856        H873   1.110       .  S
C856        H874   1.111   1_655  S
C858        H869   1.111       .  S
C858        H870   1.110       .  S
C858        H871   1.110       .  S
C860        C861   1.403       .  A
C860        C865   1.506       .  S
C861        C862   1.404       .  A
C861        H866   1.084       .  S
C862        C863   1.417       .  A
C863        C864   1.399       .  A
C863        C867   1.509       .  S
C864        H868   1.085   1_655  S
C865        H875   1.111       .  S
C865        H876   1.110       .  S
C865        H877   1.110       .  S
C867        H878   1.110       .  S
C867        H879   1.108       .  S
C867        H880   1.111       .  S
C881        C882   1.399       .  A
C881        C886   1.395       .  A
C881        H891   1.085       .  S
C882        C887   1.462       .  S
C882        C883   1.404       .  A
C883        C884   1.397       .  A
C883        C888   1.506       .  S
C884        C885   1.407       .  A
C884        H889   1.084       .  S
C885        C886   1.415       .  A
C886        C890   1.508       .  S
C887        C892   1.405       .  A
C887        C896   1.398       .  A
C888        H904   1.110       .  S
C888        H905   1.110       .  S
C888        H906   1.111       .  S
C890        H901   1.111       .  S
C890        H902   1.109       .  S
C890        H903   1.107       .  S
C892        C893   1.395       .  A
C892        C897   1.507       .  S
C893        C894   1.405       .  A
C893        H898   1.084       .  S
C894        C895   1.417       .  A
C895        C896   1.397       .  A
C895        C899   1.510       .  S
C896        H900   1.085       .  S
C897        H907   1.111       .  S
C897        H908   1.110       .  S
C897        H909   1.110       .  S
C899        H910   1.109       .  S
C899        H911   1.111       .  S
C899        H912   1.111       .  S
C913        C914   1.404       .  A
C913        C918   1.405       .  A
C913        H923   1.084       .  S
C914        C919   1.485       .  S
C914        C915   1.410       .  A
C915        C916   1.403       .  A
C915        C920   1.507       .  S
C916        C917   1.405       .  A
C916        H921   1.085       .  S
C917        C918   1.414       .  A
C918        C922   1.506       .  S
C919        C924   1.407       .  A
C919        C928   1.401       .  A
C920        H936   1.110       .  S
C920        H937   1.110       .  S
C920        H938   1.111       .  S
C922        H933   1.110       .  S
C922        H934   1.111       .  S
C922        H935   1.106       .  S
C924        C925   1.405       .  A
C924        C929   1.506       .  S
C925        C926   1.412       .  A
C925        H930   1.083       .  S
C926        C927   1.423       .  A
C927        C928   1.406       .  A
C927        C931   1.509       .  S
C928        H932   1.084       .  S
C929        H939   1.111       .  S
C929        H940   1.110       .  S
C929        H941   1.110       .  S
C931        H942   1.111       .  S
C931        H943   1.110       .  S
C931        H944   1.111       .  S
C945        C946   1.405       .  A
C945        C950   1.412       .  A
C945        H955   1.084       .  S
C946        C951   1.495       .  S
C946        C947   1.411       .  A
C947        C948   1.408       .  A
C947        C952   1.508       .  S
C948        C949   1.409       .  A
C948        H953   1.084       .  S
C949        C950   1.417       .  A
C950        C954   1.506       .  S
C951        C956   1.413       .  A
C951        C960   1.407   1_556  A
C952        H968   1.110   1_556  S
C952        H969   1.108       .  S
C952        H970   1.111       .  S
C954        H965   1.109       .  S
C954        H966   1.111       .  S
C954        H967   1.110       .  S
C956        C957   1.403       .  A
C956        C961   1.511       .  S
C957        C958   1.409   1_556  A
C957        H962   1.085       .  S
C958        C959   1.417       .  A
C959        C960   1.416       .  A
C959        C963   1.505       .  S
C960        H964   1.084       .  S
C961        H971   1.111       .  S
C961        H972   1.110       .  S
C961        H973   1.107       .  S
C963        H974   1.111       .  S
C963        H975   1.110       .  S
C963        H976   1.111       .  S
C977        C978   1.396       .  A
C977        C982   1.398       .  A
C977        H987   1.084       .  S
C978        C983   1.460       .  S
C978        C979   1.408       .  A
C979        C980   1.393       .  A
C979        C984   1.509       .  S
C980        C981   1.403       .  A
C980        H985   1.084       .  S
C981        C982   1.418       .  A
C982        C986   1.508       .  S
C983        C988   1.408       .  A
C983        C992   1.396       .  A
C984       H1000   1.110       .  S
C984       H1001   1.110       .  S
C984       H1002   1.111       .  S
C986        H997   1.111       .  S
C986        H998   1.111       .  S
C986        H999   1.110       .  S
C988        C989   1.393       .  A
C988        C993   1.508       .  S
C989        C990   1.403       .  A
C989        H994   1.085       .  S
C990        C991   1.419       .  A
C991        C992   1.398       .  A
C991        C995   1.509       .  S
C992        H996   1.084       .  S
C993       H1003   1.111       .  S
C993       H1004   1.110       .  S
C993       H1005   1.110       .  S
C995       H1006   1.110       .  S
C995       H1007   1.110       .  S
C995       H1008   1.111       .  S
C1009      C1010   1.405       .  A
C1009      C1014   1.409       .  A
C1009      H1019   1.084       .  S
C1010      C1015   1.490       .  S
C1010      C1011   1.411       .  A
C1011      C1012   1.407       .  A
C1011      C1016   1.507       .  S
C1012      C1013   1.407       .  A
C1012      H1017   1.084       .  S
C1013      C1014   1.415       .  A
C1014      C1018   1.506       .  S
C1015      C1020   1.414       .  A
C1015      C1024   1.405       .  A
C1016      H1032   1.110       .  S
C1016      H1033   1.108       .  S
C1016      H1034   1.111       .  S
C1018      H1029   1.109       .  S
C1018      H1030   1.111       .  S
C1018      H1031   1.110       .  S
C1020      C1021   1.404       .  A
C1020      C1025   1.510       .  S
C1021      C1022   1.404       .  A
C1021      H1026   1.085       .  S
C1022      C1023   1.414       .  A
C1023      C1024   1.409       .  A
C1023      C1027   1.505       .  S
C1024      H1028   1.084       .  S
C1025      H1035   1.111       .  S
C1025      H1036   1.111       .  S
C1025      H1037   1.107       .  S
C1027      H1038   1.110       .  S
C1027      H1039   1.109       .  S
C1027      H1040   1.110       .  S
C1041      C1042   1.402       .  A
C1041      C1046   1.402       .  A
C1041      H1051   1.085       .  S
C1042      C1047   1.483       .  S
C1042      C1043   1.410       .  A
C1043      C1044   1.405       .  A
C1043      C1048   1.506       .  S
C1044      C1045   1.404       .  A
C1044      H1049   1.084       .  S
C1045      C1046   1.414       .  A
C1046      C1050   1.507       .  S
C1047      C1052   1.406       .  A
C1047      C1056   1.402       .  A
C1048      H1064   1.110       .  S
C1048      H1065   1.110       .  S
C1048      H1066   1.111       .  S
C1050      H1061   1.110       .  S
C1050      H1062   1.111       .  S
C1050      H1063   1.107       .  S
C1052      C1053   1.404       .  A
C1052      C1057   1.506       .  S
C1053      C1054   1.411       .  A
C1053      H1058   1.084       .  S
C1054      C1055   1.419       .  A
C1055      C1056   1.405       .  A
C1055      C1059   1.508       .  S
C1056      H1060   1.084       .  S
C1057      H1067   1.111       .  S
C1057      H1068   1.110       .  S
C1057      H1069   1.110       .  S
C1059      H1070   1.111       .  S
C1059      H1071   1.109       .  S
C1059      H1072   1.111       .  S
C1073      C1074   1.402       .  A
C1073      C1078   1.407       .  A
C1073      H1083   1.084       .  S
C1074      C1079   1.488       .  S
C1074      C1075   1.414       .  A
C1075      C1076   1.406       .  A
C1075      C1080   1.507       .  S
C1076      C1077   1.402       .  A
C1076      H1081   1.084       .  S
C1077      C1078   1.417       .  A
C1078      C1082   1.507       .  S
C1079      C1084   1.412       .  A
C1079      C1088   1.401       .  A
C1080      H1096   1.110       .  S
C1080      H1097   1.110       .  S
C1080      H1098   1.111       .  S
C1082      H1093   1.110       .  S
C1082      H1094   1.110       .  S
C1082      H1095   1.109       .  S
C1084      C1085   1.410       .  A
C1084      C1089   1.505       .  S
C1085      C1086   1.405       .  A
C1085      H1090   1.084       .  S
C1086      C1087   1.417       .  A
C1087      C1088   1.403       .  A
C1087      C1091   1.508       .  S
C1088      H1092   1.085       .  S
C1089      H1099   1.111       .  S
C1089      H1100   1.110       .  S
C1089      H1101   1.110       .  S
C1091      H1102   1.110       .  S
C1091      H1103   1.109       .  S
C1091      H1104   1.110       .  S
C1105      C1106   1.399       .  A
C1105      C1110   1.402       .  A
C1105      H1115   1.084       .  S
C1106      C1111   1.482       .  S
C1106      C1107   1.413       .  A
C1107      C1108   1.406       .  A
C1107      C1112   1.506       .  S
C1108      C1109   1.402       .  A
C1108      H1113   1.084       .  S
C1109      C1110   1.415       .  A
C1110      C1114   1.509       .  S
C1111      C1116   1.411       .  A
C1111      C1120   1.398       .  A
C1112      H1128   1.110       .  S
C1112      H1129   1.109       .  S
C1112      H1130   1.111       .  S
C1114      H1125   1.109       .  S
C1114      H1126   1.111       .  S
C1114      H1127   1.110       .  S
C1116      C1117   1.402       .  A
C1116      C1121   1.509       .  S
C1117      C1118   1.407   1_556  A
C1117      H1122   1.084       .  S
C1118      C1119   1.427       .  A
C1119      C1120   1.408   1_554  A
C1119      C1123   1.509       .  S
C1120      H1124   1.084       .  S
C1121      H1131   1.111       .  S
C1121      H1132   1.110       .  S
C1121      H1133   1.109       .  S
C1123      H1134   1.111       .  S
C1123      H1135   1.111       .  S
C1123      H1136   1.109       .  S
C1137      C1138   1.400       .  A
C1137      C1142   1.398       .  A
C1137      H1147   1.085       .  S
C1138      C1143   1.462       .  S
C1138      C1139   1.404       .  A
C1139      C1140   1.395       .  A
C1139      C1144   1.507       .  S
C1140      C1141   1.406       .  A
C1140      H1145   1.084       .  S
C1141      C1142   1.414       .  A
C1142      C1146   1.509       .  S
C1143      C1148   1.402       .  A
C1143      C1152   1.399       .  A
C1144      H1160   1.110       .  S
C1144      H1161   1.110       .  S
C1144      H1162   1.111       .  S
C1146      H1157   1.111       .  S
C1146      H1158   1.108       .  S
C1146      H1159   1.109       .  S
C1148      C1149   1.396       .  A
C1148      C1153   1.506       .  S
C1149      C1150   1.410       .  A
C1149      H1154   1.084       .  S
C1150      C1151   1.418       .  A
C1151      C1152   1.396       .  A
C1151      C1155   1.510       .  S
C1152      H1156   1.085       .  S
C1153      H1163   1.111       .  S
C1153      H1164   1.110       .  S
C1153      H1165   1.110       .  S
C1155      H1166   1.109       .  S
C1155      H1167   1.111       .  S
C1155      H1168   1.111       .  S
C1169      C1170   1.397       .  A
C1169      C1174   1.395       .  A
C1169      H1179   1.085       .  S
C1170      C1175   1.458       .  S
C1170      C1171   1.401       .  A
C1171      C1172   1.393       .  A
C1171      C1176   1.507       .  S
C1172      C1173   1.410       .  A
C1172      H1177   1.084       .  S
C1173      C1174   1.420       .  A
C1174      C1178   1.510       .  S
C1175      C1180   1.403       .  A
C1175      C1184   1.401       .  A
C1176      H1192   1.110       .  S
C1176      H1193   1.110       .  S
C1176      H1194   1.111       .  S
C1178      H1189   1.111       .  S
C1178      H1190   1.109       .  S
C1178      H1191   1.110       .  S
C1180      C1181   1.393       .  A
C1180      C1185   1.507       .  S
C1181      C1182   1.404       .  A
C1181      H1186   1.085       .  S
C1182      C1183   1.409       .  A
C1183      C1184   1.395       .  A
C1183      C1187   1.507       .  S
C1184      H1188   1.085       .  S
C1185      H1195   1.111       .  S
C1185      H1196   1.110       .  S
C1185      H1197   1.110       .  S
C1187      H1198   1.111       .  S
C1187      H1199   1.109       .  S
C1187      H1200   1.109       .  S
C1201      C1202   1.405       .  A
C1201      C1206   1.412       .  A
C1201      H1211   1.084       .  S
C1202      C1207   1.491       .  S
C1202      C1203   1.414       .  A
C1203      C1204   1.401       .  A
C1203      C1208   1.509       .  S
C1204      C1205   1.403       .  A
C1204      H1209   1.082       .  S
C1205      C1206   1.417       .  A
C1206      C1210   1.506       .  S
C1207      C1212   1.413       .  A
C1207      C1216   1.404       .  A
C1208      H1224   1.109       .  S
C1208      H1225   1.111       .  S
C1208      H1226   1.111       .  S
C1210      H1221   1.109       .  S
C1210      H1222   1.111       .  S
C1210      H1223   1.111       .  S
C1212      C1213   1.407       .  A
C1212      C1217   1.507       .  S
C1213      C1214   1.405   1_565  A
C1213      H1218   1.085       .  S
C1214      C1215   1.413       .  A
C1215      C1216   1.405   1_545  A
C1215      C1219   1.506       .  S
C1216      H1220   1.084       .  S
C1217      H1227   1.111       .  S
C1217      H1228   1.110       .  S
C1217      H1229   1.111       .  S
C1219      H1230   1.110       .  S
C1219      H1231   1.110       .  S
C1219      H1232   1.111       .  S
C1233      C1234   1.400       .  A
C1233      C1238   1.404       .  A
C1233      H1243   1.084       .  S
C1234      C1239   1.474       .  S
C1234      C1235   1.407       .  A
C1235      C1236   1.400       .  A
C1235      C1240   1.507       .  S
C1236      C1237   1.405       .  A
C1236      H1241   1.084       .  S
C1237      C1238   1.418       .  A
C1238      C1242   1.509       .  S
C1239      C1244   1.407       .  A
C1239      C1248   1.401   1_554  A
C1240      H1256   1.110       .  S
C1240      H1257   1.110       .  S
C1240      H1258   1.111       .  S
C1242      H1253   1.110       .  S
C1242      H1254   1.111       .  S
C1242      H1255   1.111       .  S
C1244      C1245   1.400       .  A
C1244      C1249   1.507       .  S
C1245      C1246   1.406   1_554  A
C1245      H1250   1.084       .  S
C1246      C1247   1.416       .  A
C1247      C1248   1.403       .  A
C1247      C1251   1.508       .  S
C1248      H1252   1.084       .  S
C1249      H1259   1.111       .  S
C1249      H1260   1.110       .  S
C1249      H1261   1.110       .  S
C1251      H1262   1.111       .  S
C1251      H1263   1.110       .  S
C1251      H1264   1.110       .  S
C1265      C1266   1.402       .  A
C1265      C1270   1.404       .  A
C1265      H1275   1.084       .  S
C1266      C1271   1.483       .  S
C1266      C1267   1.406       .  A
C1267      C1268   1.404       .  A
C1267      C1272   1.506       .  S
C1268      C1269   1.413   1_565  A
C1268      H1273   1.083   1_565  S
C1269      C1270   1.420   1_545  A
C1270      C1274   1.508   1_565  S
C1271      C1276   1.409       .  A
C1271      C1280   1.402       .  A
C1272      H1288   1.109       .  S
C1272      H1289   1.110       .  S
C1272      H1290   1.111       .  S
C1274      H1285   1.110   1_554  S
C1274      H1286   1.111   1_545  S
C1274      H1287   1.110       .  S
C1276      C1277   1.402       .  A
C1276      C1281   1.506       .  S
C1277      C1278   1.406       .  A
C1277      H1282   1.085       .  S
C1278      C1279   1.416       .  A
C1279      C1280   1.403       .  A
C1279      C1283   1.506       .  S
C1280      H1284   1.085       .  S
C1281      H1291   1.111       .  S
C1281      H1292   1.109   1_554  S
C1281      H1293   1.110       .  S
C1283      H1294   1.109       .  S
C1283      H1295   1.105       .  S
C1283      H1296   1.110       .  S
C1297      C1298   1.397       .  A
C1297      C1302   1.407   1_556  A
C1297      H1307   1.084       .  S
C1298      C1303   1.482       .  S
C1298      C1299   1.410       .  A
C1299      C1300   1.402   1_556  A
C1299      C1304   1.508       .  S
C1300      C1301   1.407       .  A
C1300      H1305   1.084       .  S
C1301      C1302   1.428       .  A
C1302      C1306   1.509       .  S
C1303      C1308   1.413       .  A
C1303      C1312   1.400       .  A
C1304      H1320   1.110       .  S
C1304      H1321   1.110       .  S
C1304      H1322   1.111       .  S
C1306      H1317   1.110       .  S
C1306      H1318   1.111   1_554  S
C1306      H1319   1.110   1_455  S
C1308      C1309   1.405       .  A
C1308      C1313   1.507       .  S
C1309      C1310   1.402       .  A
C1309      H1314   1.084       .  S
C1310      C1311   1.414       .  A
C1311      C1312   1.402       .  A
C1311      C1315   1.507       .  S
C1312      H1316   1.084       .  S
C1313      H1323   1.111       .  S
C1313      H1324   1.110       .  S
C1313      H1325   1.110       .  S
C1315      H1326   1.110       .  S
C1315      H1327   1.110       .  S
C1315      H1328   1.111       .  S
C1329      C1330   1.405       .  A
C1329      C1334   1.407   1_556  A
C1329      H1339   1.084   1_556  S
C1330      C1335   1.494       .  S
C1330      C1331   1.413       .  A
C1331      C1332   1.408       .  A
C1331      C1336   1.506       .  S
C1332      C1333   1.405   1_556  A
C1332      H1337   1.085       .  S
C1333      C1334   1.414       .  A
C1334      C1338   1.507       .  S
C1335      C1340   1.415       .  A
C1335      C1344   1.405       .  A
C1336      H1352   1.110       .  S
C1336      H1353   1.110       .  S
C1336      H1354   1.111       .  S
C1338      H1349   1.110       .  S
C1338      H1350   1.110       .  S
C1338      H1351   1.110       .  S
C1340      C1341   1.403       .  A
C1340      C1345   1.508       .  S
C1341      C1342   1.404       .  A
C1341      H1346   1.085       .  S
C1342      C1343   1.418       .  A
C1343      C1344   1.411       .  A
C1343      C1347   1.507       .  S
C1344      H1348   1.084       .  S
C1345      H1355   1.111       .  S
C1345      H1356   1.109       .  S
C1345      H1357   1.110       .  S
C1347      H1358   1.110       .  S
C1347      H1359   1.107       .  S
C1347      H1360   1.110       .  S
C1361      C1362   1.404       .  A
C1361      C1366   1.409       .  A
C1361      H1371   1.084       .  S
C1362      C1367   1.493       .  S
C1362      C1363   1.412       .  A
C1363      C1364   1.408       .  A
C1363      C1368   1.507       .  S
C1364      C1365   1.408       .  A
C1364      H1369   1.084       .  S
C1365      C1366   1.416       .  A
C1366      C1370   1.506       .  S
C1367      C1372   1.414       .  A
C1367      C1376   1.407   1_565  A
C1368      H1384   1.110       .  S
C1368      H1385   1.108       .  S
C1368      H1386   1.111       .  S
C1370      H1381   1.111       .  S
C1370      H1382   1.111       .  S
C1370      H1383   1.110       .  S
C1372      C1373   1.403       .  A
C1372      C1377   1.510       .  S
C1373      C1374   1.406   1_565  A
C1373      H1378   1.084       .  S
C1374      C1375   1.414       .  A
C1375      C1376   1.414       .  A
C1375      C1379   1.505       .  S
C1376      H1380   1.084       .  S
C1377      H1387   1.111       .  S
C1377      H1388   1.110       .  S
C1377      H1389   1.107       .  S
C1379      H1390   1.111       .  S
C1379      H1391   1.110       .  S
C1379      H1392   1.111       .  S
C1393      C1394   1.401       .  A
C1393      C1398   1.404   1_556  A
C1393      H1403   1.084       .  S
C1394      C1399   1.477       .  S
C1394      C1395   1.409   1_556  A
C1395      C1396   1.400       .  A
C1395      C1400   1.507       .  S
C1396      C1397   1.404       .  A
C1396      H1401   1.084       .  S
C1397      C1398   1.415       .  A
C1398      C1402   1.507       .  S
C1399      C1404   1.410       .  A
C1399      C1408   1.399       .  A
C1400      H1416   1.110       .  S
C1400      H1417   1.110   1_554  S
C1400      H1418   1.111       .  S
C1402      H1413   1.111       .  S
C1402      H1414   1.111   1_554  S
C1402      H1415   1.110       .  S
C1404      C1405   1.402       .  A
C1404      C1409   1.506       .  S
C1405      C1406   1.402       .  A
C1405      H1410   1.084       .  S
C1406      C1407   1.417       .  A
C1407      C1408   1.402       .  A
C1407      C1411   1.509       .  S
C1408      H1412   1.084   1_556  S
C1409      H1419   1.111       .  S
C1409      H1420   1.110       .  S
C1409      H1421   1.110       .  S
C1411      H1422   1.109       .  S
C1411      H1423   1.111       .  S
C1411      H1424   1.111   1_556  S
C1425      C1426   1.401       .  A
C1425      C1430   1.402       .  A
C1425      H1435   1.084       .  S
C1426      C1431   1.486       .  S
C1426      C1427   1.414       .  A
C1427      C1428   1.406       .  A
C1427      C1432   1.507       .  S
C1428      C1429   1.401       .  A
C1428      H1433   1.084       .  S
C1429      C1430   1.415       .  A
C1430      C1434   1.508       .  S
C1431      C1436   1.412       .  A
C1431      C1440   1.400       .  A
C1432      H1448   1.110       .  S
C1432      H1449   1.110       .  S
C1432      H1450   1.111       .  S
C1434      H1445   1.110       .  S
C1434      H1446   1.110       .  S
C1434      H1447   1.109       .  S
C1436      C1437   1.402       .  A
C1436      C1441   1.509       .  S
C1437      C1438   1.407       .  A
C1437      H1442   1.084       .  S
C1438      C1439   1.423       .  A
C1439      C1440   1.407       .  A
C1439      C1443   1.508       .  S
C1440      H1444   1.084       .  S
C1441      H1451   1.111       .  S
C1441      H1452   1.109       .  S
C1441      H1453   1.110       .  S
C1443      H1454   1.111       .  S
C1443      H1455   1.110       .  S
C1443      H1456   1.110       .  S
C1457      C1458   1.401       .  A
C1457      C1462   1.396       .  A
C1457      H1467   1.085       .  S
C1458      C1463   1.462       .  S
C1458      C1459   1.403       .  A
C1459      C1460   1.396       .  A
C1459      C1464   1.506       .  S
C1460      C1461   1.407       .  A
C1460      H1465   1.084       .  S
C1461      C1462   1.412       .  A
C1462      C1466   1.509       .  S
C1463      C1468   1.403       .  A
C1463      C1472   1.398       .  A
C1464      H1480   1.110       .  S
C1464      H1481   1.110       .  S
C1464      H1482   1.111       .  S
C1466      H1477   1.111       .  S
C1466      H1478   1.109       .  S
C1466      H1479   1.110       .  S
C1468      C1469   1.394       .  A
C1468      C1473   1.507       .  S
C1469      C1470   1.409       .  A
C1469      H1474   1.084       .  S
C1470      C1471   1.419       .  A
C1471      C1472   1.397       .  A
C1471      C1475   1.510       .  S
C1472      H1476   1.085       .  S
C1473      H1483   1.111       .  S
C1473      H1484   1.110       .  S
C1473      H1485   1.110       .  S
C1475      H1486   1.110       .  S
C1475      H1487   1.109       .  S
C1475      H1488   1.111       .  S
C1489      C1490   1.406       .  A
C1489      C1494   1.412       .  A
C1489      H1499   1.084       .  S
C1490      C1495   1.494       .  S
C1490      C1491   1.415       .  A
C1491      C1492   1.403       .  A
C1491      C1496   1.509       .  S
C1492      C1493   1.405       .  A
C1492      H1497   1.085       .  S
C1493      C1494   1.419       .  A
C1494      C1498   1.507       .  S
C1495      C1500   1.413       .  A
C1495      C1504   1.406       .  A
C1496      H1512   1.109       .  S
C1496      H1513   1.110       .  S
C1496      H1514   1.111       .  S
C1498      H1509   1.110       .  S
C1498      H1510   1.111       .  S
C1498      H1511   1.106       .  S
C1500      C1501   1.407       .  A
C1500      C1505   1.506       .  S
C1501      C1502   1.404       .  A
C1501      H1506   1.085       .  S
C1502      C1503   1.413       .  A
C1503      C1504   1.407       .  A
C1503      C1507   1.506       .  S
C1504      H1508   1.084       .  S
C1505      H1515   1.111       .  S
C1505      H1516   1.110       .  S
C1505      H1517   1.110       .  S
C1507      H1518   1.110       .  S
C1507      H1519   1.110       .  S
C1507      H1520   1.109       .  S
C1521      C1522   1.399       .  A
C1521      C1526   1.402   1_545  A
C1521      H1531   1.084       .  S
C1522      C1527   1.479       .  S
C1522      C1523   1.409   1_545  A
C1523      C1524   1.404       .  A
C1523      C1528   1.506       .  S
C1524      C1525   1.407       .  A
C1524      H1529   1.084       .  S
C1525      C1526   1.420       .  A
C1526      C1530   1.508   1_565  S
C1527      C1532   1.409       .  A
C1527      C1536   1.400       .  A
C1528      H1544   1.110       .  S
C1528      H1545   1.110       .  S
C1528      H1546   1.111       .  S
C1530      H1541   1.109   1_545  S
C1530      H1542   1.111       .  S
C1530      H1543   1.108       .  S
C1532      C1533   1.400       .  A
C1532      C1537   1.508       .  S
C1533      C1534   1.407       .  A
C1533      H1538   1.084       .  S
C1534      C1535   1.421       .  A
C1535      C1536   1.406       .  A
C1535      C1539   1.508       .  S
C1536      H1540   1.084       .  S
C1537      H1547   1.111       .  S
C1537      H1548   1.110       .  S
C1537      H1549   1.110   1_545  S
C1539      H1550   1.111       .  S
C1539      H1551   1.110       .  S
C1539      H1552   1.109       .  S
C1553      C1554   1.400       .  A
C1553      C1558   1.402       .  A
C1553      H1563   1.084       .  S
C1554      C1559   1.483       .  S
C1554      C1555   1.413       .  A
C1555      C1556   1.406       .  A
C1555      C1560   1.506       .  S
C1556      C1557   1.403       .  A
C1556      H1561   1.084       .  S
C1557      C1558   1.416       .  A
C1558      C1562   1.508       .  S
C1559      C1564   1.410       .  A
C1559      C1568   1.397       .  A
C1560      H1576   1.110       .  S
C1560      H1577   1.110       .  S
C1560      H1578   1.111       .  S
C1562      H1573   1.111       .  S
C1562      H1574   1.110       .  S
C1562      H1575   1.110       .  S
C1564      C1565   1.402       .  A
C1564      C1569   1.508       .  S
C1565      C1566   1.409       .  A
C1565      H1570   1.083       .  S
C1566      C1567   1.428       .  A
C1567      C1568   1.408       .  A
C1567      C1571   1.509       .  S
C1568      H1572   1.084       .  S
C1569      H1579   1.111       .  S
C1569      H1580   1.110       .  S
C1569      H1581   1.110       .  S
C1571      H1582   1.111       .  S
C1571      H1583   1.110       .  S
C1571      H1584   1.110       .  S
C1585      C1586   1.397       .  A
C1585      C1590   1.406       .  A
C1585      H1595   1.084       .  S
C1586      C1591   1.481       .  S
C1586      C1587   1.411       .  A
C1587      C1588   1.401       .  A
C1587      C1592   1.509       .  S
C1588      C1589   1.408       .  A
C1588      H1593   1.084       .  S
C1589      C1590   1.425       .  A
C1590      C1594   1.508       .  S
C1591      C1596   1.413       .  A
C1591      C1600   1.400       .  A
C1592      H1608   1.110       .  S
C1592      H1609   1.110       .  S
C1592      H1610   1.111       .  S
C1594      H1605   1.111       .  S
C1594      H1606   1.110       .  S
C1594      H1607   1.110       .  S
C1596      C1597   1.405       .  A
C1596      C1601   1.507       .  S
C1597      C1598   1.401       .  A
C1597      H1602   1.080       .  S
C1598      C1599   1.415       .  A
C1599      C1600   1.400       .  A
C1599      C1603   1.508       .  S
C1600      H1604   1.084       .  S
C1601      H1611   1.111       .  S
C1601      H1612   1.110       .  S
C1601      H1613   1.111       .  S
C1603      H1614   1.110       .  S
C1603      H1615   1.110       .  S
C1603      H1616   1.111       .  S
C1617      C1618   1.404       .  A
C1617      C1622   1.409       .  A
C1617      H1627   1.084       .  S
C1618      C1623   1.496       .  S
C1618      C1619   1.415       .  A
C1619      C1620   1.408       .  A
C1619      C1624   1.507       .  S
C1620      C1621   1.405       .  A
C1620      H1625   1.084       .  S
C1621      C1622   1.417       .  A
C1622      C1626   1.507       .  S
C1623      C1628   1.415       .  A
C1623      C1632   1.401       .  A
C1624      H1640   1.109       .  S
C1624      H1641   1.110       .  S
C1624      H1642   1.111       .  S
C1626      H1637   1.110       .  S
C1626      H1638   1.110       .  S
C1626      H1639   1.108       .  S
C1628      C1629   1.415       .  A
C1628      C1633   1.504       .  S
C1629      C1630   1.408       .  A
C1629      H1634   1.084       .  S
C1630      C1631   1.418       .  A
C1631      C1632   1.401       .  A
C1631      C1635   1.506       .  S
C1632      H1636   1.085       .  S
C1633      H1643   1.111       .  S
C1633      H1644   1.109       .  S
C1633      H1645   1.110       .  S
C1635      H1646   1.111       .  S
C1635      H1647   1.103       .  S
C1635      H1648   1.110       .  S
C1649      C1650   1.404       .  A
C1649      C1654   1.408       .  A
C1649      H1659   1.084       .  S
C1650      C1655   1.491       .  S
C1650      C1651   1.412       .  A
C1651      C1652   1.408       .  A
C1651      C1656   1.507       .  S
C1652      C1653   1.407       .  A
C1652      H1657   1.084       .  S
C1653      C1654   1.415       .  A
C1654      C1658   1.507       .  S
C1655      C1660   1.412       .  A
C1655      C1664   1.405       .  A
C1656      H1672   1.110       .  S
C1656      H1673   1.107       .  S
C1656      H1674   1.111       .  S
C1658      H1669   1.108       .  S
C1658      H1670   1.111       .  S
C1658      H1671   1.110       .  S
C1660      C1661   1.403       .  A
C1660      C1665   1.511       .  S
C1661      C1662   1.407       .  A
C1661      H1666   1.083       .  S
C1662      C1663   1.420       .  A
C1663      C1664   1.412       .  A
C1663      C1667   1.507       .  S
C1664      H1668   1.084       .  S
C1665      H1675   1.111       .  S
C1665      H1676   1.111       .  S
C1665      H1677   1.107       .  S
C1667      H1678   1.111       .  S
C1667      H1679   1.104       .  S
C1667      H1680   1.110       .  S
C1681      C1682   1.400       .  A
C1681      C1686   1.404   1_565  A
C1681      H1691   1.084   1_565  S
C1682      C1687   1.476       .  S
C1682      C1683   1.407       .  A
C1683      C1684   1.400       .  A
C1683      C1688   1.507       .  S
C1684      C1685   1.408   1_565  A
C1684      H1689   1.084       .  S
C1685      C1686   1.419       .  A
C1686      C1690   1.508       .  S
C1687      C1692   1.408       .  A
C1687      C1696   1.400       .  A
C1688      H1704   1.110       .  S
C1688      H1705   1.110       .  S
C1688      H1706   1.111       .  S
C1690      H1701   1.110       .  S
C1690      H1702   1.111       .  S
C1690      H1703   1.110       .  S
C1692      C1693   1.400       .  A
C1692      C1697   1.507       .  S
C1693      C1694   1.406       .  A
C1693      H1698   1.084       .  S
C1694      C1695   1.417       .  A
C1695      C1696   1.404       .  A
C1695      C1699   1.508       .  S
C1696      H1700   1.084       .  S
C1697      H1707   1.111       .  S
C1697      H1708   1.110       .  S
C1697      H1709   1.110       .  S
C1699      H1710   1.111       .  S
C1699      H1711   1.110       .  S
C1699      H1712   1.110       .  S
C1713      C1714   1.402       .  A
C1713      C1718   1.402       .  A
C1713      H1723   1.085       .  S
C1714      C1719   1.487       .  S
C1714      C1715   1.412       .  A
C1715      C1716   1.406       .  A
C1715      C1720   1.506       .  S
C1716      C1717   1.404       .  A
C1716      H1721   1.084       .  S
C1717      C1718   1.415       .  A
C1718      C1722   1.507       .  S
C1719      C1724   1.410       .  A
C1719      C1728   1.404       .  A
C1720      H1736   1.109       .  S
C1720      H1737   1.110       .  S
C1720      H1738   1.111       .  S
C1722      H1733   1.110       .  S
C1722      H1734   1.111       .  S
C1722      H1735   1.105       .  S
C1724      C1725   1.405       .  A
C1724      C1729   1.507       .  S
C1725      C1726   1.408       .  A
C1725      H1730   1.084       .  S
C1726      C1727   1.416       .  A
C1727      C1728   1.406       .  A
C1727      C1731   1.508   1_565  S
C1728      H1732   1.084       .  S
C1729      H1739   1.111       .  S
C1729      H1740   1.109       .  S
C1729      H1741   1.110       .  S
C1731      H1742   1.111       .  S
C1731      H1743   1.109       .  S
C1731      H1744   1.111       .  S
C1745      C1746   1.400       .  A
C1745      C1750   1.396       .  A
C1745      H1755   1.085       .  S
C1746      C1751   1.461       .  S
C1746      C1747   1.405       .  A
C1747      C1748   1.394       .  A
C1747      C1752   1.507       .  S
C1748      C1749   1.406       .  A
C1748      H1753   1.084       .  S
C1749      C1750   1.413       .  A
C1750      C1754   1.509       .  S
C1751      C1756   1.403       .  A
C1751      C1760   1.399       .  A
C1752      H1768   1.109       .  S
C1752      H1769   1.110       .  S
C1752      H1770   1.111       .  S
C1754      H1765   1.111       .  S
C1754      H1766   1.109       .  S
C1754      H1767   1.111       .  S
C1756      C1757   1.395       .  A
C1756      C1761   1.507       .  S
C1757      C1758   1.408       .  A
C1757      H1762   1.084       .  S
C1758      C1759   1.416       .  A
C1759      C1760   1.395       .  A
C1759      C1763   1.509       .  S
C1760      H1764   1.085       .  S
C1761      H1771   1.111       .  S
C1761      H1772   1.110       .  S
C1761      H1773   1.110       .  S
C1763      H1774   1.109       .  S
C1763      H1775   1.109       .  S
C1763      H1776   1.111       .  S
C1777      C1778   1.404       .  A
C1777      C1782   1.406       .  A
C1777      H1787   1.085       .  S
C1778      C1783   1.492       .  S
C1778      C1779   1.412       .  A
C1779      C1780   1.410       .  A
C1779      C1784   1.507       .  S
C1780      C1781   1.407       .  A
C1780      H1785   1.084       .  S
C1781      C1782   1.416       .  A
C1782      C1786   1.508       .  S
C1783      C1788   1.414       .  A
C1783      C1792   1.405       .  A
C1784      H1800   1.110       .  S
C1784      H1801   1.107       .  S
C1784      H1802   1.111   1_554  S
C1786      H1797   1.110       .  S
C1786      H1798   1.110       .  S
C1786      H1799   1.107       .  S
C1788      C1789   1.405       .  A
C1788      C1793   1.510       .  S
C1789      C1790   1.407       .  A
C1789      H1794   1.085       .  S
C1790      C1791   1.419       .  A
C1791      C1792   1.410       .  A
C1791      C1795   1.508       .  S
C1792      H1796   1.084       .  S
C1793      H1803   1.111       .  S
C1793      H1804   1.110       .  S
C1793      H1805   1.106       .  S
C1795      H1806   1.111       .  S
C1795      H1807   1.105       .  S
C1795      H1808   1.110       .  S
C1809      C1810   1.401       .  A
C1809      C1814   1.403       .  A
C1809      H1819   1.085       .  S
C1810      C1815   1.486       .  S
C1810      C1811   1.412   1_554  A
C1811      C1812   1.408       .  A
C1811      C1816   1.506       .  S
C1812      C1813   1.405       .  A
C1812      H1817   1.084       .  S
C1813      C1814   1.415   1_556  A
C1814      C1818   1.505       .  S
C1815      C1820   1.414       .  A
C1815      C1824   1.403       .  A
C1816      H1832   1.110       .  S
C1816      H1833   1.109       .  S
C1816      H1834   1.111       .  S
C1818      H1829   1.108       .  S
C1818      H1830   1.110       .  S
C1818      H1831   1.109       .  S
C1820      C1821   1.403       .  A
C1820      C1825   1.508       .  S
C1821      C1822   1.401       .  A
C1821      H1826   1.085       .  S
C1822      C1823   1.415       .  A
C1823      C1824   1.408       .  A
C1823      C1827   1.507       .  S
C1824      H1828   1.084       .  S
C1825      H1835   1.111       .  S
C1825      H1836   1.110       .  S
C1825      H1837   1.109       .  S
C1827      H1838   1.111       .  S
C1827      H1839   1.109       .  S
C1827      H1840   1.110       .  S
C1841      C1842   1.401       .  A
C1841      C1846   1.403       .  A
C1841      H1851   1.084       .  S
C1842      C1847   1.474       .  S
C1842      C1843   1.409       .  A
C1843      C1844   1.400       .  A
C1843      C1848   1.507       .  S
C1844      C1845   1.404       .  A
C1844      H1849   1.084       .  S
C1845      C1846   1.414       .  A
C1846      C1850   1.508       .  S
C1847      C1852   1.406       .  A
C1847      C1856   1.399       .  A
C1848      H1864   1.110       .  S
C1848      H1865   1.110       .  S
C1848      H1866   1.111       .  S
C1850      H1861   1.111       .  S
C1850      H1862   1.110       .  S
C1850      H1863   1.110       .  S
C1852      C1853   1.400       .  A
C1852      C1857   1.507       .  S
C1853      C1854   1.409       .  A
C1853      H1858   1.084       .  S
C1854      C1855   1.419       .  A
C1855      C1856   1.403       .  A
C1855      C1859   1.508       .  S
C1856      H1860   1.084       .  S
C1857      H1867   1.111       .  S
C1857      H1868   1.110       .  S
C1857      H1869   1.110       .  S
C1859      H1870   1.111       .  S
C1859      H1871   1.109       .  S
C1859      H1872   1.110       .  S
C1873      C1874   1.399       .  A
C1873      C1878   1.407       .  A
C1873      H1883   1.084       .  S
C1874      C1879   1.488       .  S
C1874      C1875   1.412       .  A
C1875      C1876   1.405       .  A
C1875      C1880   1.508       .  S
C1876      C1877   1.407       .  A
C1876      H1881   1.084       .  S
C1877      C1878   1.425       .  A
C1878      C1882   1.509       .  S
C1879      C1884   1.414       .  A
C1879      C1888   1.401       .  A
C1880      H1896   1.109       .  S
C1880      H1897   1.110       .  S
C1880      H1898   1.111       .  S
C1882      H1893   1.111       .  S
C1882      H1894   1.111       .  S
C1882      H1895   1.110       .  S
C1884      C1885   1.407       .  A
C1884      C1889   1.506       .  S
C1885      C1886   1.403       .  A
C1885      H1890   1.084       .  S
C1886      C1887   1.416       .  A
C1887      C1888   1.403       .  A
C1887      C1891   1.508       .  S
C1888      H1892   1.084       .  S
C1889      H1899   1.111       .  S
C1889      H1900   1.110       .  S
C1889      H1901   1.111       .  S
C1891      H1902   1.110       .  S
C1891      H1903   1.108       .  S
C1891      H1904   1.111       .  S
C1905      C1906   1.401       .  A
C1905      C1910   1.401       .  A
C1905      H1915   1.084       .  S
C1906      C1911   1.478       .  S
C1906      C1907   1.413       .  A
C1907      C1908   1.402       .  A
C1907      C1912   1.507       .  S
C1908      C1909   1.401       .  A
C1908      H1913   1.084       .  S
C1909      C1910   1.413       .  A
C1910      C1914   1.508       .  S
C1911      C1916   1.412       .  A
C1911      C1920   1.397       .  A
C1912      H1928   1.110       .  S
C1912      H1929   1.111       .  S
C1912      H1930   1.111       .  S
C1914      H1925   1.111       .  S
C1914      H1926   1.110       .  S
C1914      H1927   1.110       .  S
C1916      C1917   1.400       .  A
C1916      C1921   1.508       .  S
C1917      C1918   1.405       .  A
C1917      H1922   1.084       .  S
C1918      C1919   1.424       .  A
C1919      C1920   1.404       .  A
C1919      C1923   1.509       .  S
C1920      H1924   1.084       .  S
C1921      H1931   1.111       .  S
C1921      H1932   1.109       .  S
C1921      H1933   1.110       .  S
C1923      H1934   1.111       .  S
C1923      H1935   1.110       .  S
C1923      H1936   1.111       .  S
C1937      C1938   1.404       .  A
C1937      C1942   1.405       .  A
C1937      H1947   1.084       .  S
C1938      C1943   1.490       .  S
C1938      C1939   1.412       .  A
C1939      C1940   1.407       .  A
C1939      C1944   1.506       .  S
C1940      C1941   1.404       .  A
C1940      H1945   1.085       .  S
C1941      C1942   1.414       .  A
C1942      C1946   1.506       .  S
C1943      C1948   1.413       .  A
C1943      C1952   1.404       .  A
C1944      H1960   1.110       .  S
C1944      H1961   1.110       .  S
C1944      H1962   1.111       .  S
C1946      H1957   1.110       .  S
C1946      H1958   1.110       .  S
C1946      H1959   1.110       .  S
C1948      C1949   1.403       .  A
C1948      C1953   1.509       .  S
C1949      C1950   1.404       .  A
C1949      H1954   1.085       .  S
C1950      C1951   1.418       .  A
C1951      C1952   1.410       .  A
C1951      C1955   1.507       .  S
C1952      H1956   1.084       .  S
C1953      H1963   1.111       .  S
C1953      H1964   1.110       .  S
C1953      H1965   1.110       .  S
C1955      H1966   1.111       .  S
C1955      H1967   1.107       .  S
C1955      H1968   1.110       .  S
C1969      C1970   1.403       .  A
C1969      C1974   1.405       .  A
C1969      H1979   1.085       .  S
C1970      C1975   1.488       .  S
C1970      C1971   1.411       .  A
C1971      C1972   1.407       .  A
C1971      C1976   1.506       .  S
C1972      C1973   1.406       .  A
C1972      H1977   1.084       .  S
C1973      C1974   1.417       .  A
C1974      C1978   1.508       .  S
C1975      C1980   1.412       .  A
C1975      C1984   1.406       .  A
C1976      H1992   1.110       .  S
C1976      H1993   1.108       .  S
C1976      H1994   1.111       .  S
C1978      H1989   1.110       .  S
C1978      H1990   1.110       .  S
C1978      H1991   1.106       .  S
C1980      C1981   1.401   1_554  A
C1980      C1985   1.510       .  S
C1981      C1982   1.406       .  A
C1981      H1986   1.085       .  S
C1982      C1983   1.416   1_556  A
C1983      C1984   1.413       .  A
C1983      C1987   1.506       .  S
C1984      H1988   1.084       .  S
C1985      H1995   1.111   1_554  S
C1985      H1996   1.111       .  S
C1985      H1997   1.108       .  S
C1987      H1998   1.111       .  S
C1987      H1999   1.110       .  S
C1987      H2000   1.111       .  S
C2001      C2002   1.401       .  A
C2001      C2006   1.403       .  A
C2001      H2011   1.084       .  S
C2002      C2007   1.476       .  S
C2002      C2003   1.408       .  A
C2003      C2004   1.401       .  A
C2003      C2008   1.507       .  S
C2004      C2005   1.407       .  A
C2004      H2009   1.084       .  S
C2005      C2006   1.418       .  A
C2006      C2010   1.508       .  S
C2007      C2012   1.407       .  A
C2007      C2016   1.400       .  A
C2008      H2024   1.110       .  S
C2008      H2025   1.110       .  S
C2008      H2026   1.111       .  S
C2010      H2021   1.111       .  S
C2010      H2022   1.111       .  S
C2010      H2023   1.110       .  S
C2012      C2013   1.400       .  A
C2012      C2017   1.507       .  S
C2013      C2014   1.407       .  A
C2013      H2018   1.084       .  S
C2014      C2015   1.418       .  A
C2015      C2016   1.403       .  A
C2015      C2019   1.507       .  S
C2016      H2020   1.084       .  S
C2017      H2027   1.111       .  S
C2017      H2028   1.110       .  S
C2017      H2029   1.110       .  S
C2019      H2030   1.107       .  S
C2019      H2031   1.110       .  S
C2019      H2032   1.111       .  S
C2033      C2034   1.402       .  A
C2033      C2038   1.406   1_554  A
C2033      H2043   1.084       .  S
C2034      C2039   1.481       .  S
C2034      C2035   1.406       .  A
C2035      C2036   1.403   1_554  A
C2035      C2040   1.506       .  S
C2036      C2037   1.412       .  A
C2036      H2041   1.084       .  S
C2037      C2038   1.421       .  A
C2038      C2042   1.508       .  S
C2039      C2044   1.410       .  A
C2039      C2048   1.400       .  A
C2040      H2056   1.110       .  S
C2040      H2057   1.110       .  S
C2040      H2058   1.111       .  S
C2042      H2053   1.111       .  S
C2042      H2054   1.109       .  S
C2042      H2055   1.110       .  S
C2044      C2045   1.406       .  A
C2044      C2049   1.505       .  S
C2045      C2046   1.404       .  A
C2045      H2050   1.084       .  S
C2046      C2047   1.416       .  A
C2047      C2048   1.401       .  A
C2047      C2051   1.507       .  S
C2048      H2052   1.085       .  S
C2049      H2059   1.111       .  S
C2049      H2060   1.110       .  S
C2049      H2061   1.110       .  S
C2051      H2062   1.111       .  S
C2051      H2063   1.105       .  S
C2051      H2064   1.110       .  S
C2065      C2066   1.398       .  A
C2065      C2070   1.395       .  A
C2065      H2075   1.085       .  S
C2066      C2071   1.459       .  S
C2066      C2067   1.402       .  A
C2067      C2068   1.395       .  A
C2067      C2072   1.506       .  S
C2068      C2069   1.409       .  A
C2068      H2073   1.084       .  S
C2069      C2070   1.417       .  A
C2070      C2074   1.510       .  S
C2071      C2076   1.403       .  A
C2071      C2080   1.399       .  A
C2072      H2088   1.110       .  S
C2072      H2089   1.110       .  S
C2072      H2090   1.111       .  S
C2074      H2085   1.111       .  S
C2074      H2086   1.109       .  S
C2074      H2087   1.110       .  S
C2076      C2077   1.395       .  A
C2076      C2081   1.506       .  S
C2077      C2078   1.407       .  A
C2077      H2082   1.084       .  S
C2078      C2079   1.415       .  A
C2079      C2080   1.395       .  A
C2079      C2083   1.509       .  S
C2080      H2084   1.085       .  S
C2081      H2091   1.111       .  S
C2081      H2092   1.110       .  S
C2081      H2093   1.110       .  S
C2083      H2094   1.109       .  S
C2083      H2095   1.109       .  S
C2083      H2096   1.111       .  S
C2097      C2098   1.400       .  A
C2097      C2102   1.401       .  A
C2097      H2107   1.085       .  S
C2098      C2103   1.485       .  S
C2098      C2099   1.411       .  A
C2099      C2100   1.408       .  A
C2099      C2104   1.505       .  S
C2100      C2101   1.404       .  A
C2100      H2105   1.084       .  S
C2101      C2102   1.416       .  A
C2102      C2106   1.507       .  S
C2103      C2108   1.407       .  A
C2103      C2112   1.403       .  A
C2104      H2120   1.110       .  S
C2104      H2121   1.110       .  S
C2104      H2122   1.111       .  S
C2106      H2117   1.110       .  S
C2106      H2118   1.110       .  S
C2106      H2119   1.106       .  S
C2108      C2109   1.405       .  A
C2108      C2113   1.506       .  S
C2109      C2110   1.410       .  A
C2109      H2114   1.084       .  S
C2110      C2111   1.417       .  A
C2111      C2112   1.407       .  A
C2111      C2115   1.507       .  S
C2112      H2116   1.084       .  S
C2113      H2123   1.111       .  S
C2113      H2124   1.110       .  S
C2113      H2125   1.110       .  S
C2115      H2126   1.109       .  S
C2115      H2127   1.111       .  S
C2115      H2128   1.111       .  S
C2129      C2130   1.404       .  A
C2129      C2134   1.413       .  A
C2129      H2139   1.084       .  S
C2130      C2135   1.492       .  S
C2130      C2131   1.411       .  A
C2131      C2132   1.404       .  A
C2131      C2136   1.509       .  S
C2132      C2133   1.409       .  A
C2132      H2137   1.085       .  S
C2133      C2134   1.421       .  A
C2134      C2138   1.507       .  S
C2135      C2140   1.410       .  A
C2135      C2144   1.403       .  A
C2136      H2152   1.110       .  S
C2136      H2153   1.109       .  S
C2136      H2154   1.111       .  S
C2138      H2149   1.110       .  S
C2138      H2150   1.110       .  S
C2138      H2151   1.104       .  S
C2140      C2141   1.409       .  A
C2140      C2145   1.506       .  S
C2141      C2142   1.408       .  A
C2141      H2146   1.084       .  S
C2142      C2143   1.418       .  A
C2143      C2144   1.407       .  A
C2143      C2147   1.508       .  S
C2144      H2148   1.085       .  S
C2145      H2155   1.111       .  S
C2145      H2156   1.110       .  S
C2145      H2157   1.109       .  S
C2147      H2158   1.110       .  S
C2147      H2159   1.106       .  S
C2147      H2160   1.110       .  S
C2161      C2162   1.403   1_565  A
C2161      C2166   1.406       .  A
C2161      H2171   1.084       .  S
C2162      C2167   1.493       .  S
C2162      C2163   1.413       .  A
C2163      C2164   1.410   1_545  A
C2163      C2168   1.505       .  S
C2164      C2165   1.405       .  A
C2164      H2169   1.083       .  S
C2165      C2166   1.415       .  A
C2166      C2170   1.506       .  S
C2167      C2172   1.414       .  A
C2167      C2176   1.405       .  A
C2168      H2184   1.110       .  S
C2168      H2185   1.110       .  S
C2168      H2186   1.111       .  S
C2170      H2181   1.109       .  S
C2170      H2182   1.110       .  S
C2170      H2183   1.109       .  S
C2172      C2173   1.406       .  A
C2172      C2177   1.508       .  S
C2173      C2174   1.403       .  A
C2173      H2178   1.085       .  S
C2174      C2175   1.417       .  A
C2175      C2176   1.412       .  A
C2175      C2179   1.506       .  S
C2176      H2180   1.084       .  S
C2177      H2187   1.111       .  S
C2177      H2188   1.110       .  S
C2177      H2189   1.110       .  S
C2179      H2190   1.110       .  S
C2179      H2191   1.109       .  S
C2179      H2192   1.110       .  S
C2193      C2194   1.401       .  A
C2193      C2198   1.405       .  A
C2193      H2203   1.084       .  S
C2194      C2199   1.479       .  S
C2194      C2195   1.409       .  A
C2195      C2196   1.402       .  A
C2195      C2200   1.507       .  S
C2196      C2197   1.406       .  A
C2196      H2201   1.084       .  S
C2197      C2198   1.417       .  A
C2198      C2202   1.507       .  S
C2199      C2204   1.411       .  A
C2199      C2208   1.399       .  A
C2200      H2216   1.110       .  S
C2200      H2217   1.110       .  S
C2200      H2218   1.111       .  S
C2202      H2213   1.111       .  S
C2202      H2214   1.109       .  S
C2202      H2215   1.111       .  S
C2204      C2205   1.406       .  A
C2204      C2209   1.506       .  S
C2205      C2206   1.405       .  A
C2205      H2210   1.084       .  S
C2206      C2207   1.417       .  A
C2207      C2208   1.401       .  A
C2207      C2211   1.509       .  S
C2208      H2212   1.084       .  S
C2209      H2219   1.111       .  S
C2209      H2220   1.110       .  S
C2209      H2221   1.110       .  S
C2211      H2222   1.109       .  S
C2211      H2223   1.109       .  S
C2211      H2224   1.111       .  S
C2225      C2226   1.399       .  A
C2225      C2230   1.401       .  A
C2225      H2235   1.084       .  S
C2226      C2231   1.482       .  S
C2226      C2227   1.413       .  A
C2227      C2228   1.406       .  A
C2227      C2232   1.506       .  S
C2228      C2229   1.402       .  A
C2228      H2233   1.084       .  S
C2229      C2230   1.415       .  A
C2230      C2234   1.507       .  S
C2231      C2236   1.410       .  A
C2231      C2240   1.396       .  A
C2232      H2248   1.110       .  S
C2232      H2249   1.110       .  S
C2232      H2250   1.111       .  S
C2234      H2245   1.111       .  S
C2234      H2246   1.110       .  S
C2234      H2247   1.109       .  S
C2236      C2237   1.403   1_545  A
C2236      C2241   1.508       .  S
C2237      C2238   1.409       .  A
C2237      H2242   1.083       .  S
C2238      C2239   1.429       .  A
C2239      C2240   1.408   1_565  A
C2239      C2243   1.509       .  S
C2240      H2244   1.084       .  S
C2241      H2251   1.111   1_545  S
C2241      H2252   1.110       .  S
C2241      H2253   1.110       .  S
C2243      H2254   1.111       .  S
C2243      H2255   1.110       .  S
C2243      H2256   1.110       .  S
C2257      C2258   1.403       .  A
C2257      C2262   1.407       .  A
C2257      H2267   1.084       .  S
C2258      C2263   1.485       .  S
C2258      C2259   1.407       .  A
C2259      C2260   1.404       .  A
C2259      C2264   1.506       .  S
C2260      C2261   1.411       .  A
C2260      H2265   1.083       .  S
C2261      C2262   1.419       .  A
C2262      C2266   1.508       .  S
C2263      C2268   1.411       .  A
C2263      C2272   1.403       .  A
C2264      H2280   1.110       .  S
C2264      H2281   1.110       .  S
C2264      H2282   1.111       .  S
C2266      H2277   1.111       .  S
C2266      H2278   1.111       .  S
C2266      H2279   1.109       .  S
C2268      C2269   1.405       .  A
C2268      C2273   1.506       .  S
C2269      C2270   1.405       .  A
C2269      H2274   1.084       .  S
C2270      C2271   1.413       .  A
C2271      C2272   1.403       .  A
C2271      C2275   1.508       .  S
C2272      H2276   1.085       .  S
C2273      H2283   1.111       .  S
C2273      H2284   1.110       .  S
C2273      H2285   1.110       .  S
C2275      H2286   1.110       .  S
C2275      H2287   1.108       .  S
C2275      H2288   1.110       .  S
C2289      C2290   1.402       .  A
C2289      C2294   1.405       .  A
C2289      H2299   1.084       .  S
C2290      C2295   1.494       .  S
C2290      C2291   1.415       .  A
C2291      C2292   1.413       .  A
C2291      C2296   1.506       .  S
C2292      C2293   1.406       .  A
C2292      H2297   1.084       .  S
C2293      C2294   1.417       .  A
C2294      C2298   1.508       .  S
C2295      C2300   1.416       .  A
C2295      C2304   1.403       .  A
C2296      H2312   1.110       .  S
C2296      H2313   1.109       .  S
C2296      H2314   1.111       .  S
C2298      H2309   1.111       .  S
C2298      H2310   1.110       .  S
C2298      H2311   1.110       .  S
C2300      C2301   1.408       .  A
C2300      C2305   1.508       .  S
C2301      C2302   1.403       .  A
C2301      H2306   1.084       .  S
C2302      C2303   1.418       .  A
C2303      C2304   1.410       .  A
C2303      C2307   1.507   1_545  S
C2304      H2308   1.084       .  S
C2305      H2315   1.111       .  S
C2305      H2316   1.110       .  S
C2305      H2317   1.108       .  S
C2307      H2318   1.110       .  S
C2307      H2319   1.108       .  S
C2307      H2320   1.110       .  S
C2321      C2322   1.404   1_565  A
C2321      C2326   1.410       .  A
C2321      H2331   1.084       .  S
C2322      C2327   1.491       .  S
C2322      C2323   1.413       .  A
C2323      C2324   1.404   1_545  A
C2323      C2328   1.510       .  S
C2324      C2325   1.406       .  A
C2324      H2329   1.082   1_565  S
C2325      C2326   1.418       .  A
C2326      C2330   1.506       .  S
C2327      C2332   1.411       .  A
C2327      C2336   1.404       .  A
C2328      H2344   1.110       .  S
C2328      H2345   1.107       .  S
C2328      H2346   1.111       .  S
C2330      H2341   1.110       .  S
C2330      H2342   1.111       .  S
C2330      H2343   1.104       .  S
C2332      C2333   1.408       .  A
C2332      C2337   1.507       .  S
C2333      C2334   1.408       .  A
C2333      H2338   1.084       .  S
C2334      C2335   1.416       .  A
C2335      C2336   1.408       .  A
C2335      C2339   1.507       .  S
C2336      H2340   1.084       .  S
C2337      H2347   1.111       .  S
C2337      H2348   1.110   1_545  S
C2337      H2349   1.107       .  S
C2339      H2350   1.111       .  S
C2339      H2351   1.110       .  S
C2339      H2352   1.108       .  S
C2353      C2354   1.402       .  A
C2353      C2358   1.406       .  A
C2353      H2363   1.084       .  S
C2354      C2359   1.479       .  S
C2354      C2355   1.409       .  A
C2355      C2356   1.401       .  A
C2355      C2360   1.507       .  S
C2356      C2357   1.405       .  A
C2356      H2361   1.084       .  S
C2357      C2358   1.416       .  A
C2358      C2362   1.507       .  S
C2359      C2364   1.410       .  A
C2359      C2368   1.400       .  A
C2360      H2376   1.110       .  S
C2360      H2377   1.110       .  S
C2360      H2378   1.111       .  S
C2362      H2373   1.111       .  S
C2362      H2374   1.110       .  S
C2362      H2375   1.111       .  S
C2364      C2365   1.403       .  A
C2364      C2369   1.507       .  S
C2365      C2366   1.404       .  A
C2365      H2370   1.084       .  S
C2366      C2367   1.419       .  A
C2367      C2368   1.404       .  A
C2367      C2371   1.509       .  S
C2368      H2372   1.084       .  S
C2369      H2379   1.111       .  S
C2369      H2380   1.110       .  S
C2369      H2381   1.110       .  S
C2371      H2382   1.109       .  S
C2371      H2383   1.111       .  S
C2371      H2384   1.111       .  S
C2385      C2386   1.401       .  A
C2385      C2390   1.402       .  A
C2385      H2395   1.085       .  S
C2386      C2391   1.479       .  S
C2386      C2387   1.409       .  A
C2387      C2388   1.404       .  A
C2387      C2392   1.506       .  S
C2388      C2389   1.405       .  A
C2388      H2393   1.084       .  S
C2389      C2390   1.415       .  A
C2390      C2394   1.507       .  S
C2391      C2396   1.406       .  A
C2391      C2400   1.400       .  A
C2392      H2408   1.110       .  S
C2392      H2409   1.110       .  S
C2392      H2410   1.111       .  S
C2394      H2405   1.110       .  S
C2394      H2406   1.111       .  S
C2394      H2407   1.105       .  S
C2396      C2397   1.404       .  A
C2396      C2401   1.506       .  S
C2397      C2398   1.412       .  A
C2397      H2402   1.084       .  S
C2398      C2399   1.420       .  A
C2399      C2400   1.403       .  A
C2399      C2403   1.509       .  S
C2400      H2404   1.084       .  S
C2401      H2411   1.111       .  S
C2401      H2412   1.110       .  S
C2401      H2413   1.110       .  S
C2403      H2414   1.111       .  S
C2403      H2415   1.109       .  S
C2403      H2416   1.111       .  S
C2417      C2418   1.395       .  A
C2417      C2422   1.398       .  A
C2417      H2427   1.084       .  S
C2418      C2423   1.463       .  S
C2418      C2419   1.408       .  A
C2419      C2420   1.395       .  A
C2419      C2424   1.508       .  S
C2420      C2421   1.404       .  A
C2420      H2425   1.084       .  S
C2421      C2422   1.420       .  A
C2422      C2426   1.508       .  S
C2423      C2428   1.407       .  A
C2423      C2432   1.394       .  A
C2424      H2440   1.110       .  S
C2424      H2441   1.110       .  S
C2424      H2442   1.111       .  S
C2426      H2437   1.110       .  S
C2426      H2438   1.111       .  S
C2426      H2439   1.110       .  S
C2428      C2429   1.395       .  A
C2428      C2433   1.508       .  S
C2429      C2430   1.406       .  A
C2429      H2434   1.084       .  S
C2430      C2431   1.424       .  A
C2431      C2432   1.399       .  A
C2431      C2435   1.509       .  S
C2432      H2436   1.084       .  S
C2433      H2443   1.111       .  S
C2433      H2444   1.110       .  S
C2433      H2445   1.110       .  S
C2435      H2446   1.110       .  S
C2435      H2447   1.110       .  S
C2435      H2448   1.111       .  S
C2449      C2450   1.401       .  A
C2449      C2454   1.401       .  A
C2449      H2459   1.085       .  S
C2450      C2455   1.479       .  S
C2450      C2451   1.410       .  A
C2451      C2452   1.404       .  A
C2451      C2456   1.506       .  S
C2452      C2453   1.403       .  A
C2452      H2457   1.084       .  S
C2453      C2454   1.414       .  A
C2454      C2458   1.507       .  S
C2455      C2460   1.406       .  A
C2455      C2464   1.401       .  A
C2456      H2472   1.110       .  S
C2456      H2473   1.110       .  S
C2456      H2474   1.111       .  S
C2458      H2469   1.110       .  S
C2458      H2470   1.111       .  S
C2458      H2471   1.107       .  S
C2460      C2461   1.405       .  A
C2460      C2465   1.506       .  S
C2461      C2462   1.412       .  A
C2461      H2466   1.084       .  S
C2462      C2463   1.419       .  A
C2463      C2464   1.403       .  A
C2463      C2467   1.508       .  S
C2464      H2468   1.084       .  S
C2465      H2475   1.111       .  S
C2465      H2476   1.110       .  S
C2465      H2477   1.110       .  S
C2467      H2478   1.109       .  S
C2467      H2479   1.111       .  S
C2467      H2480   1.111       .  S
C2481      C2482   1.404       .  A
C2481      C2486   1.411       .  A
C2481      H2491   1.084       .  S
C2482      C2487   1.492       .  S
C2482      C2483   1.414       .  A
C2483      C2484   1.404       .  A
C2483      C2488   1.510       .  S
C2484      C2485   1.406       .  A
C2484      H2489   1.084       .  S
C2485      C2486   1.419       .  A
C2486      C2490   1.507       .  S
C2487      C2492   1.411       .  A
C2487      C2496   1.406       .  A
C2488      H2504   1.110       .  S
C2488      H2505   1.107       .  S
C2488      H2506   1.111       .  S
C2490      H2501   1.110       .  S
C2490      H2502   1.111       .  S
C2490      H2503   1.106       .  S
C2492      C2493   1.408       .  A
C2492      C2497   1.507       .  S
C2493      C2494   1.407       .  A
C2493      H2498   1.084       .  S
C2494      C2495   1.413       .  A
C2495      C2496   1.410       .  A
C2495      C2499   1.504       .  S
C2496      H2500   1.084       .  S
C2497      H2507   1.111   1_455  S
C2497      H2508   1.110       .  S
C2497      H2509   1.108       .  S
C2499      H2510   1.111       .  S
C2499      H2511   1.110       .  S
C2499      H2512   1.107       .  S
C2513      C2514   1.404       .  A
C2513      C2518   1.406       .  A
C2513      H2523   1.084       .  S
C2514      C2519   1.487       .  S
C2514      C2515   1.411       .  A
C2515      C2516   1.406       .  A
C2515      C2520   1.507       .  S
C2516      C2517   1.406       .  A
C2516      H2521   1.084       .  S
C2517      C2518   1.414       .  A
C2518      C2522   1.507       .  S
C2519      C2524   1.412       .  A
C2519      C2528   1.403   1_455  A
C2520      H2536   1.110       .  S
C2520      H2537   1.107       .  S
C2520      H2538   1.111       .  S
C2522      H2533   1.109       .  S
C2522      H2534   1.111       .  S
C2522      H2535   1.110       .  S
C2524      C2525   1.402       .  A
C2524      C2529   1.510       .  S
C2525      C2526   1.407   1_455  A
C2525      H2530   1.084       .  S
C2526      C2527   1.421       .  A
C2527      C2528   1.409       .  A
C2527      C2531   1.508       .  S
C2528      H2532   1.084       .  S
C2529      H2539   1.111       .  S
C2529      H2540   1.111       .  S
C2529      H2541   1.107       .  S
C2531      H2542   1.111       .  S
C2531      H2543   1.103       .  S
C2531      H2544   1.110       .  S
C2545      C2546   1.401       .  A
C2545      C2550   1.403       .  A
C2545      H2555   1.085       .  S
C2546      C2551   1.475       .  S
C2546      C2547   1.407       .  A
C2547      C2548   1.399       .  A
C2547      C2552   1.507       .  S
C2548      C2549   1.405       .  A
C2548      H2553   1.084       .  S
C2549      C2550   1.418       .  A
C2550      C2554   1.509       .  S
C2551      C2556   1.406       .  A
C2551      C2560   1.401       .  A
C2552      H2568   1.110       .  S
C2552      H2569   1.110       .  S
C2552      H2570   1.111       .  S
C2554      H2565   1.110       .  S
C2554      H2566   1.111       .  S
C2554      H2567   1.105       .  S
C2556      C2557   1.399       .  A
C2556      C2561   1.507       .  S
C2557      C2558   1.408       .  A
C2557      H2562   1.084       .  S
C2558      C2559   1.418       .  A
C2559      C2560   1.404       .  A
C2559      C2563   1.508       .  S
C2560      H2564   1.084       .  S
C2561      H2571   1.111       .  S
C2561      H2572   1.110       .  S
C2561      H2573   1.110       .  S
C2563      H2574   1.111       .  S
C2563      H2575   1.110       .  S
C2563      H2576   1.110       .  S
C2577      C2578   1.400       .  A
C2577      C2582   1.401       .  A
C2577      H2587   1.085       .  S
C2578      C2583   1.480       .  S
C2578      C2579   1.410       .  A
C2579      C2580   1.405       .  A
C2579      C2584   1.505       .  S
C2580      C2581   1.404       .  A
C2580      H2585   1.084       .  S
C2581      C2582   1.415       .  A
C2582      C2586   1.508       .  S
C2583      C2588   1.406       .  A
C2583      C2592   1.402       .  A
C2584      H2600   1.110       .  S
C2584      H2601   1.110       .  S
C2584      H2602   1.111       .  S
C2586      H2597   1.110       .  S
C2586      H2598   1.111       .  S
C2586      H2599   1.106       .  S
C2588      C2589   1.403       .  A
C2588      C2593   1.506       .  S
C2589      C2590   1.410       .  A
C2589      H2594   1.084       .  S
C2590      C2591   1.417       .  A
C2591      C2592   1.405       .  A
C2591      C2595   1.508       .  S
C2592      H2596   1.084       .  S
C2593      H2603   1.111       .  S
C2593      H2604   1.110       .  S
C2593      H2605   1.110       .  S
C2595      H2606   1.109       .  S
C2595      H2607   1.110       .  S
C2595      H2608   1.111       .  S
C2609      C2610   1.396       .  A
C2609      C2614   1.406       .  A
C2609      H2619   1.084       .  S
C2610      C2615   1.481       .  S
C2610      C2611   1.410       .  A
C2611      C2612   1.403       .  A
C2611      C2616   1.508       .  S
C2612      C2613   1.408       .  A
C2612      H2617   1.084       .  S
C2613      C2614   1.428       .  A
C2614      C2618   1.509       .  S
C2615      C2620   1.412       .  A
C2615      C2624   1.398       .  A
C2616      H2632   1.110       .  S
C2616      H2633   1.110       .  S
C2616      H2634   1.111       .  S
C2618      H2629   1.110       .  S
C2618      H2630   1.111       .  S
C2618      H2631   1.110       .  S
C2620      C2621   1.406       .  A
C2620      C2625   1.506       .  S
C2621      C2622   1.404       .  A
C2621      H2626   1.084       .  S
C2622      C2623   1.417       .  A
C2623      C2624   1.399       .  A
C2623      C2627   1.507       .  S
C2624      H2628   1.085       .  S
C2625      H2635   1.111       .  S
C2625      H2636   1.110       .  S
C2625      H2637   1.110       .  S
C2627      H2638   1.110       .  S
C2627      H2639   1.107       .  S
C2627      H2640   1.111       .  S
C2641      C2642   1.405       .  A
C2641      C2646   1.408       .  A
C2641      H2651   1.084       .  S
C2642      C2647   1.490       .  S
C2642      C2643   1.411       .  A
C2643      C2644   1.406       .  A
C2643      C2648   1.506       .  S
C2644      C2645   1.405       .  A
C2644      H2649   1.085       .  S
C2645      C2646   1.413       .  A
C2646      C2650   1.505       .  S
C2647      C2652   1.413       .  A
C2647      C2656   1.404       .  A
C2648      H2664   1.110       .  S
C2648      H2665   1.110       .  S
C2648      H2666   1.111       .  S
C2650      H2661   1.110       .  S
C2650      H2662   1.110       .  S
C2650      H2663   1.110       .  S
C2652      C2653   1.403       .  A
C2652      C2657   1.508       .  S
C2653      C2654   1.404       .  A
C2653      H2658   1.085       .  S
C2654      C2655   1.418       .  A
C2655      C2656   1.411       .  A
C2655      C2659   1.507       .  S
C2656      H2660   1.084       .  S
C2657      H2667   1.111       .  S
C2657      H2668   1.110       .  S
C2657      H2669   1.110       .  S
C2659      H2670   1.111       .  S
C2659      H2671   1.107       .  S
C2659      H2672   1.110       .  S
C2673      C2674   1.405       .  A
C2673      C2678   1.413       .  A
C2673      H2683   1.084       .  S
C2674      C2679   1.489       .  S
C2674      C2675   1.412       .  A
C2675      C2676   1.401   1_455  A
C2675      C2680   1.510       .  S
C2676      C2677   1.408       .  A
C2676      H2681   1.084       .  S
C2677      C2678   1.419   1_655  A
C2678      C2682   1.506       .  S
C2679      C2684   1.411       .  A
C2679      C2688   1.404       .  A
C2680      H2696   1.111       .  S
C2680      H2697   1.108       .  S
C2680      H2698   1.111   1_455  S
C2682      H2693   1.111       .  S
C2682      H2694   1.111       .  S
C2682      H2695   1.110   1_455  S
C2684      C2685   1.406       .  A
C2684      C2689   1.507       .  S
C2685      C2686   1.407       .  A
C2685      H2690   1.084       .  S
C2686      C2687   1.415       .  A
C2687      C2688   1.408       .  A
C2687      C2691   1.506       .  S
C2688      H2692   1.084       .  S
C2689      H2699   1.111       .  S
C2689      H2700   1.110       .  S
C2689      H2701   1.108       .  S
C2691      H2702   1.111       .  S
C2691      H2703   1.110       .  S
C2691      H2704   1.108       .  S
C2705      C2706   1.402       .  A
C2705      C2710   1.403       .  A
C2705      H2715   1.084       .  S
C2706      C2711   1.479       .  S
C2706      C2707   1.409       .  A
C2707      C2708   1.403       .  A
C2707      C2712   1.506       .  S
C2708      C2709   1.405       .  A
C2708      H2713   1.084       .  S
C2709      C2710   1.414       .  A
C2710      C2714   1.507       .  S
C2711      C2716   1.407       .  A
C2711      C2720   1.401       .  A
C2712      H2728   1.110       .  S
C2712      H2729   1.110       .  S
C2712      H2730   1.111       .  S
C2714      H2725   1.110       .  S
C2714      H2726   1.111       .  S
C2714      H2727   1.110       .  S
C2716      C2717   1.401       .  A
C2716      C2721   1.507       .  S
C2717      C2718   1.408       .  A
C2717      H2722   1.084       .  S
C2718      C2719   1.420       .  A
C2719      C2720   1.405       .  A
C2719      C2723   1.508       .  S
C2720      H2724   1.084       .  S
C2721      H2731   1.111       .  S
C2721      H2732   1.110       .  S
C2721      H2733   1.110       .  S
C2723      H2734   1.111       .  S
C2723      H2735   1.111       .  S
C2723      H2736   1.110       .  S
C2737      C2738   1.401       .  A
C2737      C2742   1.405   1_455  A
C2737      H2747   1.084       .  S
C2738      C2743   1.480       .  S
C2738      C2739   1.404       .  A
C2739      C2740   1.403   1_455  A
C2739      C2744   1.506       .  S
C2740      C2741   1.414       .  A
C2740      H2745   1.083       .  S
C2741      C2742   1.422       .  A
C2742      C2746   1.508       .  S
C2743      C2748   1.410       .  A
C2743      C2752   1.402       .  A
C2744      H2760   1.110       .  S
C2744      H2761   1.110       .  S
C2744      H2762   1.111       .  S
C2746      H2757   1.111       .  S
C2746      H2758   1.110       .  S
C2746      H2759   1.111       .  S
C2748      C2749   1.404       .  A
C2748      C2753   1.505       .  S
C2749      C2750   1.404       .  A
C2749      H2754   1.084       .  S
C2750      C2751   1.412       .  A
C2751      C2752   1.403       .  A
C2751      C2755   1.506       .  S
C2752      H2756   1.084       .  S
C2753      H2763   1.111       .  S
C2753      H2764   1.110       .  S
C2753      H2765   1.110       .  S
C2755      H2766   1.110       .  S
C2755      H2767   1.108       .  S
C2755      H2768   1.111       .  S
C2769      C2770   1.401       .  A
C2769      C2774   1.398       .  A
C2769      H2779   1.084       .  S
C2770      C2775   1.467       .  S
C2770      C2771   1.407       .  A
C2771      C2772   1.396       .  A
C2771      C2776   1.508       .  S
C2772      C2773   1.406       .  A
C2772      H2777   1.084       .  S
C2773      C2774   1.414       .  A
C2774      C2778   1.509       .  S
C2775      C2780   1.406       .  A
C2775      C2784   1.400       .  A
C2776      H2792   1.109       .  S
C2776      H2793   1.110       .  S
C2776      H2794   1.111       .  S
C2778      H2789   1.111       .  S
C2778      H2790   1.111       .  S
C2778      H2791   1.109       .  S
C2780      C2781   1.397       .  A
C2780      C2785   1.507       .  S
C2781      C2782   1.407       .  A
C2781      H2786   1.084       .  S
C2782      C2783   1.415       .  A
C2783      C2784   1.396       .  A
C2783      C2787   1.509       .  S
C2784      H2788   1.084       .  S
C2785      H2795   1.111       .  S
C2785      H2796   1.109       .  S
C2785      H2797   1.110       .  S
C2787      H2798   1.109       .  S
C2787      H2799   1.109       .  S
C2787      H2800   1.111       .  S
C2801      C2802   1.404       .  A
C2801      C2806   1.404       .  A
C2801      H2811   1.084       .  S
C2802      C2807   1.488       .  S
C2802      C2803   1.413       .  A
C2803      C2804   1.405       .  A
C2803      C2808   1.507       .  S
C2804      C2805   1.404       .  A
C2804      H2809   1.084       .  S
C2805      C2806   1.410       .  A
C2806      C2810   1.504       .  S
C2807      C2812   1.409       .  A
C2807      C2816   1.403       .  A
C2808      H2824   1.109       .  S
C2808      H2825   1.110       .  S
C2808      H2826   1.111       .  S
C2810      H2821   1.111       .  S
C2810      H2822   1.110       .  S
C2810      H2823   1.110       .  S
C2812      C2813   1.406       .  A
C2812      C2817   1.507       .  S
C2813      C2814   1.412       .  A
C2813      H2818   1.083       .  S
C2814      C2815   1.420       .  A
C2815      C2816   1.405       .  A
C2815      C2819   1.508       .  S
C2816      H2820   1.084       .  S
C2817      H2827   1.111       .  S
C2817      H2828   1.109       .  S
C2817      H2829   1.110       .  S
C2819      H2830   1.111       .  S
C2819      H2831   1.109       .  S
C2819      H2832   1.111       .  S
