geometry optimzed in LAMMPS
_audit_creation_date              2020-12-01 
_audit_creation_method            'lammps2cif' 
_symmetry_space_group_name_H-M    'P1' 
_symmetry_Int_Tables_number       1 
_symmetry_cell_setting            triclinic 
loop_ 
_symmetry_equiv_pos_as_xyz 
  x,y,z 
_cell_length_a                    22.8574367 
_cell_length_b                    22.950822369437482 
_cell_length_c                    22.932274309747246 
_cell_angle_alpha                 90.1805665027046 
_cell_angle_beta                  89.99979839782193 
_cell_angle_gamma                 89.99587647438645 
loop_ 
_atom_site_label 
_atom_site_type_symbol 
_atom_site_fract_x 
_atom_site_fract_y 
_atom_site_fract_z 
_atom_site_charge 
C1          C  0.75451356  0.99457400  0.99178047    -0.01600
C2          C  0.76115318  0.78009958  0.78449677    -0.01600
C3          C  0.96835542  0.98793967  0.78451860    -0.01600
C4          C  0.26330527  0.28886555  0.78022974    -0.01600
Zn5        Zn  0.54351311  0.31400560  0.81208503     1.49700
Zn6        Zn  0.44183717  0.21145664  0.80997644     1.49400
Zn7        Zn  0.44317187  0.31375340  0.70858279     1.49100
Zn8        Zn  0.53917694  0.21632080  0.71400476     1.49500
O9          O  0.49065566  0.26530360  0.76301093    -1.83200
O10         O  0.52130499  0.30110826  0.89917506    -0.73800
O11         O  0.35462712  0.23476265  0.79844408    -0.73700
O12         O  0.45358289  0.40152424  0.72839418    -0.73200
O13         O  0.45130981  0.23350911  0.89725326    -0.73900
O14         O  0.51594244  0.40101022  0.80287439    -0.73500
O15         O  0.35734992  0.30413948  0.73109481    -0.74000
O16         O  0.52759504  0.22500672  0.63229864    -0.73400
O17         O  0.46358852  0.12201274  0.78862824    -0.74200
O18         O  0.45855244  0.29070577  0.61943508    -0.73600
O19         O  0.52955445  0.13485421  0.71961746    -0.74100
O20         O  0.62104639  0.22285865  0.72760737    -0.74000
O21         O  0.63480406  0.29344518  0.79168133    -0.73700
C22         C  0.48137392  0.27165786  0.92521492     0.78000
C23         C  0.32897332  0.27489483  0.76907539     0.78500
C24         C  0.47888142  0.42826750  0.77061794     0.77500
C25         C  0.49524297  0.25347522  0.59844443     0.77900
C26         C  0.49971695  0.10115851  0.75037493     0.79000
C27         C  0.65559338  0.25356157  0.75727992     0.78100
C28         C  0.46241482  0.49336653  0.78473213    -0.01600
C29         C  0.46664577  0.28524029  0.99014485    -0.01600
Zn30       Zn  0.68589860  0.81777130  0.06191239     1.49700
Zn31       Zn  0.78471313  0.81261030  0.96572017     1.49400
Zn32       Zn  0.78884453  0.71557757  0.05984467     1.49100
Zn33       Zn  0.68621210  0.71669633  0.95928619     1.49500
O34         O  0.73481401  0.76451007  0.01315544    -1.83200
O35         O  0.70404517  0.90889084  0.04168173    -0.73800
O36         O  0.86758788  0.80510491  0.97666593    -0.73700
O37         O  0.77088689  0.72841147  0.14719151    -0.73200
O38         O  0.77172341  0.89400317  0.97498292    -0.73900
O39         O  0.69697790  0.79154113  0.14804781    -0.73500
O40         O  0.87914097  0.73198887  0.03713723    -0.70800
O41         O  0.69456099  0.63030709  0.98211075    -0.73400
O42         O  0.77740332  0.80050694  0.88417339    -0.74200
O43         O  0.76114764  0.63008223  0.05224144    -0.73600
O44         O  0.70887505  0.73423744  0.86980476    -0.74100
O45         O  0.59891411  0.72815762  0.98166845    -0.74000
O46         O  0.59905080  0.79513628  0.05191361    -0.73700
C47         C  0.74139006  0.92906572  0.00446520     0.78000
C48         C  0.90135057  0.77234882  0.00479830     0.78500
C49         C  0.72958416  0.75451771  0.17461810     0.77500
C50         C  0.72140893  0.60349191  0.02304436     0.77900
C51         C  0.74745038  0.77010562  0.84969413     0.79000
C52         C  0.57196093  0.75647430  0.02185561     0.78100
C53         C  0.86037879  0.38792477  0.89867983    -0.01600
C54         C  0.00310106  0.53193006  0.74480564    -0.01600
C55         C  0.70603165  0.53828039  0.03656808    -0.01600
C56         C  0.25353479  0.99596389  0.49063591    -0.01600
C57         C  0.11005875  0.14057698  0.64177864    -0.01600
C58         C  0.96815751  0.78463308  0.99572535    -0.01600
C59         C  0.25109409  0.49298227  0.98972557    -0.01600
C60         C  0.26028928  0.78901514  0.28583853    -0.01600
C61         C  0.11427631  0.64085580  0.14214295    -0.01600
C62         C  0.46780283  0.78346174  0.49111816    -0.01600
Zn63       Zn  0.19091717  0.81787800  0.56605951     1.49700
Zn64       Zn  0.28586158  0.81428971  0.46659143     1.49400
Zn65       Zn  0.29074309  0.71683965  0.56396753     1.49100
Zn66       Zn  0.18962633  0.71893469  0.46075293     1.49500
O67         O  0.23793712  0.76560656  0.51583957    -1.83200
O68         O  0.20963025  0.90836589  0.54387629    -0.73800
O69         O  0.36742259  0.80161369  0.47444803    -0.73700
O70         O  0.26856284  0.72570014  0.65062623    -0.73200
O71         O  0.27412485  0.89596878  0.47362721    -0.73900
O72         O  0.20236453  0.79662760  0.65293214    -0.73500
O73         O  0.38165488  0.73650316  0.54357047    -0.74000
O74         O  0.19729721  0.63293711  0.48322422    -0.73400
O75         O  0.27695564  0.80702406  0.38524265    -0.74200
O76         O  0.26342209  0.63161040  0.55433378    -0.73600
O77         O  0.21153411  0.73806345  0.37088731    -0.74100
O78         O  0.10274785  0.72924350  0.48273677    -0.74000
O79         O  0.10538686  0.78959887  0.55876301    -0.73700
C80         C  0.24380934  0.92986035  0.50427461     0.78000
C81         C  0.40211563  0.77191262  0.50472803     0.78500
C82         C  0.23059228  0.75584608  0.67862902     0.77500
C83         C  0.22382761  0.60580200  0.52409513     0.77900
C84         C  0.24764101  0.77643183  0.35077285     0.79000
C85         C  0.07735713  0.75332941  0.52644785     0.78100
Zn86       Zn  0.18535922  0.56373930  0.71629437     1.49700
Zn87       Zn  0.28460537  0.47007280  0.70814602     1.49400
Zn88       Zn  0.28242697  0.56637842  0.81332996     1.49100
Zn89       Zn  0.18232694  0.46328810  0.80823231     1.49500
O90         O  0.23495419  0.51456535  0.76286080    -1.83200
O91         O  0.19221777  0.55661613  0.63447234    -0.73800
O92         O  0.37167549  0.48220449  0.72751472    -0.73700
O93         O  0.26806973  0.65684084  0.79238842    -0.73200
O94         O  0.26118518  0.49082270  0.61937814    -0.73900
O95         O  0.19847306  0.64464266  0.72687431    -0.73500
O96         O  0.36723630  0.53766392  0.80692515    -0.74000
O97         O  0.20484602  0.47253159  0.89506885    -0.73400
O98         O  0.27918438  0.38407639  0.73268279    -0.74200
O99         O  0.26754137  0.54681117  0.89918833    -0.73600
O100        O  0.20645231  0.37810937  0.79652844    -0.74100
O101        O  0.09217250  0.48004747  0.78674270    -0.74000
O102        O  0.10333414  0.55317102  0.72611188    -0.73700
C103        C  0.22282648  0.52735639  0.59980048     0.78000
C104        C  0.39621301  0.50404659  0.77276271     0.78500
C105        C  0.23056531  0.67818492  0.75615281     0.77500
C106        C  0.24021535  0.50500305  0.92405862     0.77900
C107        C  0.24904427  0.35434756  0.76915691     0.79000
C108        C  0.06982971  0.51986344  0.75385220     0.78100
Zn109      Zn  0.03748160  0.71291055  0.71907090     1.49700
Zn110      Zn  0.94143168  0.70838206  0.81745855     1.49400
Zn111      Zn  0.04280030  0.81059135  0.81564680     1.49100
Zn112      Zn  0.94119893  0.80838377  0.71336282     1.49500
O113        O  0.98936566  0.76143931  0.76793804    -1.83200
O114        O  0.02410559  0.63144061  0.72731834    -0.73800
O115        O  0.95437886  0.72829988  0.90496803    -0.73700
O116        O  0.13414316  0.79331683  0.79504681    -0.73200
O117        O  0.95762279  0.61838967  0.79573005    -0.73900
O118        O  0.11946311  0.72501409  0.72881991    -0.73500
O119        O  0.01827868  0.80138369  0.90199994    -0.74000
O120        O  0.95094582  0.89489317  0.73454270    -0.73400
O121        O  0.85526816  0.73362897  0.80732636    -0.74200
O122        O  0.01845713  0.89582637  0.80458066    -0.73600
O123        O  0.85407503  0.79644847  0.73335639    -0.74100
O124        O  0.96280095  0.78953774  0.62456278    -0.74000
O125        O  0.02944515  0.72118501  0.63709421    -0.73700
C126        C  0.99332016  0.59748107  0.75737776     0.78000
C127        C  0.98218607  0.76960403  0.93067033     0.78500
C128        C  0.15440333  0.75595849  0.75788472     0.77500
C129        C  0.98015447  0.92229547  0.77361358     0.77900
C130        C  0.82756084  0.76943962  0.77446998     0.79000
C131        C  0.99960949  0.75237354  0.60358350     0.78100
C132        C  0.21998835  0.74370959  0.74474167    -0.01600
Zn133      Zn  0.43929971  0.80667230  0.21384782     1.49700
Zn134      Zn  0.43876434  0.70839719  0.31344460     1.49400
Zn135      Zn  0.53737677  0.71312896  0.21608673     1.49100
Zn136      Zn  0.54222802  0.81070744  0.31304975     1.49500
O137        O  0.48857875  0.76095170  0.26637402    -1.83200
O138        O  0.35456887  0.80216559  0.23705067    -0.73800
O139        O  0.45912075  0.61841946  0.29212818    -0.73700
O140        O  0.53275866  0.72393208  0.13407310    -0.73200
O141        O  0.35129647  0.73348337  0.30450646    -0.73900
O142        O  0.45526694  0.78002343  0.12641598    -0.73500
O143        O  0.52546159  0.63216730  0.22327851    -0.74000
O144        O  0.63330077  0.79105245  0.29127622    -0.73400
O145        O  0.45021063  0.73167698  0.39929919    -0.74200
O146        O  0.61842569  0.72165834  0.22610528    -0.73600
O147        O  0.52070192  0.79899906  0.39965258    -0.74100
O148        O  0.51513415  0.89726749  0.30304613    -0.74000
O149        O  0.44699036  0.89326471  0.23404089    -0.73700
C150        C  0.32624221  0.77458013  0.27591737     0.78000
C151        C  0.49516925  0.59813819  0.25351955     0.78500
C152        C  0.49692571  0.75049765  0.10256496     0.77500
C153        C  0.65318877  0.75295436  0.25449231     0.77900
C154        C  0.48071607  0.77015460  0.42620039     0.79000
C155        C  0.47464544  0.92213020  0.27313341     0.78100
C156        C  0.36456311  0.89447556  0.88887164    -0.01600
C157        C  0.51080636  0.03585138  0.73842393    -0.01600
C158        C  0.50653305  0.74304176  0.03615640    -0.01600
C159        C  0.75242079  0.49114409  0.49081694    -0.01600
Zn160      Zn  0.68613239  0.56076057  0.31418791     1.49700
Zn161      Zn  0.78764126  0.55978406  0.21408868     1.49400
Zn162      Zn  0.78315748  0.46301871  0.30976535     1.49100
Zn163      Zn  0.68615561  0.45577100  0.21373490     1.49500
O164        O  0.73410302  0.51100918  0.26163299    -1.83200
O165        O  0.69788083  0.64781946  0.29194977    -0.73800
O166        O  0.87893314  0.54274800  0.23339041    -0.73700
O167        O  0.77287555  0.47248865  0.39139852    -0.73200
O168        O  0.76666606  0.64572580  0.22375540    -0.73900
O169        O  0.70457573  0.53936764  0.40409475    -0.73500
O170        O  0.86521389  0.47445320  0.29901307    -0.74000
O171        O  0.70507496  0.36446655  0.23572625    -0.73400
O172        O  0.75969715  0.55150139  0.12938901    -0.74200
O173        O  0.77304788  0.38091209  0.30178973    -0.73600
O174        O  0.69597108  0.47864262  0.12647719    -0.74100
O175        O  0.59951264  0.48057826  0.22339058    -0.74000
O176        O  0.59981855  0.55159962  0.28964313    -0.73700
C177        C  0.72796153  0.67383435  0.25255118     0.78000
C178        C  0.89990930  0.50529497  0.26974350     0.78500
C179        C  0.74180132  0.50251916  0.42516729     0.77500
C180        C  0.74280039  0.34518836  0.27314307     0.77900
C181        C  0.72147214  0.52167085  0.10137594     0.79000
C182        C  0.57275475  0.52141737  0.25097423     0.78100
C183        C  0.75629232  0.28005204  0.28731712    -0.01600
Zn184      Zn  0.78669624  0.96249318  0.80998687     1.49700
Zn185      Zn  0.79250901  0.05928705  0.71252187     1.49400
Zn186      Zn  0.69069834  0.95544115  0.71270310     1.49100
Zn187      Zn  0.69015208  0.05899823  0.81250482     1.49500
O188        O  0.73893060  0.01045715  0.75999813    -1.83200
O189        O  0.86787673  0.97081469  0.79931459    -0.73800
O190        O  0.76426314  0.05050621  0.62670168    -0.73700
O191        O  0.71172725  0.86505611  0.73310309    -0.73200
O192        O  0.88352078  0.03683459  0.73148915    -0.73900
O193        O  0.77771887  0.88052963  0.80142713    -0.73500
O194        O  0.70175667  0.97606424  0.62595257    -0.74000
O195        O  0.60521684  0.05360167  0.78590583    -0.73400
O196        O  0.77185624  0.14686729  0.72613676    -0.74200
O197        O  0.60311292  0.98042126  0.72231874    -0.73600
O198        O  0.70359919  0.14647365  0.79537208    -0.74100
O199        O  0.70354114  0.03411529  0.90126791    -0.74000
O200        O  0.77857476  0.97534090  0.89208562    -0.73700
C201        C  0.90314850  0.00011249  0.76956138     0.78000
C202        C  0.72680671  0.01850724  0.59969976     0.78500
C203        C  0.74852948  0.84534445  0.77112010     0.77500
C204        C  0.57735916  0.02296228  0.74846191     0.77900
C205        C  0.73366620  0.17394252  0.75711011     0.79000
C206        C  0.74406151  0.00292673  0.92474337     0.78100
C207        C  0.72158328  0.23985571  0.74616621    -0.01600
Zn208      Zn  0.68717076  0.21384185  0.56348426     1.49700
Zn209      Zn  0.68079017  0.31004078  0.46466490     1.49400
Zn210      Zn  0.78148766  0.31337321  0.56819512     1.49100
Zn211      Zn  0.78392440  0.20868017  0.46766292     1.49500
O212        O  0.73479145  0.26279542  0.51457306    -1.83200
O213        O  0.60503476  0.22445608  0.55089505    -0.73800
O214        O  0.70393288  0.39681802  0.47322057    -0.73700
O215        O  0.76225838  0.29436241  0.65853611    -0.73200
O216        O  0.58989198  0.29016724  0.48250469    -0.73900
O217        O  0.70127893  0.22110492  0.64608242    -0.73500
O218        O  0.77018999  0.39978060  0.54440228    -0.74000
O219        O  0.87052702  0.23213406  0.47997641    -0.73400
O220        O  0.70368472  0.29850435  0.37873432    -0.74200
O221        O  0.86858364  0.30341268  0.54626226    -0.73600
O222        O  0.77575463  0.23320196  0.38145959    -0.74100
O223        O  0.76196201  0.11755632  0.48577732    -0.74000
O224        O  0.69484167  0.13173312  0.55341835    -0.73700
C225        C  0.56990546  0.25336958  0.52001529     0.78000
C226        C  0.74164482  0.42516270  0.50353885     0.78500
C227        C  0.73029834  0.25330422  0.68003531     0.77500
C228        C  0.89650279  0.27273324  0.50860287     0.77900
C229        C  0.74486671  0.27038985  0.35329328     0.79000
C230        C  0.72443543  0.09719889  0.52281047     0.78100
C231        C  0.86304846  0.88572909  0.39042193    -0.01600
C232        C  0.71113673  0.03191882  0.53479941    -0.01600
C233        C  0.01106704  0.74217085  0.53835624    -0.01600
C234        C  0.71807890  0.74022422  0.24023075    -0.01600
C235        C  0.21081742  0.53999180  0.53494920    -0.01600
Zn236      Zn  0.52586475  0.46281801  0.06081271     1.49700
Zn237      Zn  0.52716969  0.56458164  0.96060371     1.49400
Zn238      Zn  0.43306613  0.46629521  0.96339790     1.49100
Zn239      Zn  0.42637860  0.56543645  0.06162482     1.49500
O240        O  0.47902964  0.51672498  0.01309528    -1.83200
O241        O  0.61340077  0.48403053  0.05107336    -0.73800
O242        O  0.51016733  0.54298259  0.87067587    -0.73700
O243        O  0.44632207  0.38413071  0.96649465    -0.73200
O244        O  0.61194917  0.55644246  0.98745104    -0.73900
O245        O  0.50253866  0.37532285  0.04312531    -0.73500
O246        O  0.44248466  0.47565743  0.88308911    -0.74000
O247        O  0.33614694  0.54444483  0.03968123    -0.73400
O248        O  0.51740591  0.65070952  0.98189310    -0.74200
O249        O  0.35161331  0.47640951  0.97296325    -0.73600
O250        O  0.44985599  0.65257226  0.05143928    -0.74100
O251        O  0.45226405  0.55427039  0.14838369    -0.74000
O252        O  0.51650867  0.48173557  0.14661430    -0.73700
C253        C  0.63966920  0.52588848  0.02495275     0.78000
C254        C  0.47359090  0.50541149  0.84970089     0.78500
C255        C  0.47354333  0.35184908  0.00118712     0.77500
C256        C  0.31648207  0.50658159  0.00248943     0.77900
C257        C  0.48956206  0.67851682  0.02156741     0.79000
C258        C  0.49024060  0.52218627  0.17440300     0.78100
C259        C  0.50619756  0.53329681  0.23946496    -0.01600
C260        C  0.35905840  0.39230326  0.39039396    -0.01600
C261        C  0.50436525  0.24079664  0.53277394    -0.01600
Zn262      Zn  0.43504498  0.96514084  0.46304477     1.49700
Zn263      Zn  0.43124962  0.06199279  0.56150204     1.49400
Zn264      Zn  0.52942716  0.96087588  0.56138970     1.49100
Zn265      Zn  0.53240480  0.06124388  0.45757709     1.49500
O266        O  0.48343728  0.01417096  0.51176826    -1.83200
O267        O  0.35354465  0.97753721  0.47237642    -0.73800
O268        O  0.45742104  0.05383021  0.64704426    -0.73700
O269        O  0.50923685  0.87250071  0.54203463    -0.73200
O270        O  0.34041274  0.04143177  0.54324922    -0.73900
O271        O  0.44698000  0.88277917  0.46980257    -0.73500
O272        O  0.51840369  0.97888725  0.64791671    -0.74000
O273        O  0.61927048  0.05047425  0.48177740    -0.73400
O274        O  0.45518854  0.14774636  0.55148573    -0.74200
O275        O  0.61579311  0.98520466  0.55325785    -0.73600
O276        O  0.52183758  0.14843120  0.48043681    -0.74100
O277        O  0.51252121  0.03886870  0.36684090    -0.74000
O278        O  0.44289235  0.97409949  0.38175082    -0.73700
C279        C  0.31936719  0.00683146  0.50383370     0.78000
C280        C  0.49378152  0.02135731  0.67428878     0.78500
C281        C  0.47637033  0.84988656  0.50234891     0.77500
C282        C  0.64453293  0.02249765  0.52315623     0.77900
C283        C  0.49338339  0.17492130  0.52094452     0.79000
C284        C  0.47398410  0.00246740  0.34700164     0.78100
C285        C  0.46112751  0.98840399  0.28213880    -0.01600
C286        C  0.96593042  0.49348359  0.28235758    -0.01600
Zn287      Zn  0.92884292  0.56370781  0.56395589     1.49700
Zn288      Zn  0.03126480  0.46309087  0.56285295     1.49400
Zn289      Zn  0.93459144  0.46636339  0.46549782     1.49100
Zn290      Zn  0.03016841  0.56371802  0.46014565     1.49500
O291        O  0.98228254  0.51590865  0.51494684    -1.83200
O292        O  0.95288090  0.55174549  0.65119171    -0.73800
O293        O  0.01526196  0.37402522  0.53790430    -0.73700
O294        O  0.85309406  0.47634133  0.47371389    -0.73200
O295        O  0.01780168  0.47951813  0.65150473    -0.73900
O296        O  0.83752762  0.54119600  0.54317705    -0.73500
O297        O  0.94021975  0.38497957  0.47883753    -0.74000
O298        O  0.00628274  0.54705605  0.37118398    -0.73400
O299        O  0.11689422  0.49093422  0.55420825    -0.74200
O300        O  0.94701322  0.47284764  0.38294753    -0.73600
O301        O  0.11884874  0.55091486  0.47834190    -0.74100
O302        O  0.02205407  0.65006968  0.48344194    -0.74000
O303        O  0.95488084  0.65096372  0.55365113    -0.73700
C304        C  0.98920374  0.51921737  0.67891933     0.78000
C305        C  0.97409882  0.35187068  0.50618848     0.78500
C306        C  0.81779632  0.50475896  0.50449565     0.77500
C307        C  0.97451382  0.50609250  0.34911156     0.77900
C308        C  0.14513286  0.52593894  0.52099206     0.79000
C309        C  0.99431479  0.67744325  0.52353341     0.78100
C310        C  0.96212927  0.28576768  0.49667533    -0.01600
C311        C  0.21201171  0.04008274  0.03165158    -0.01600
Zn312      Zn  0.03414793  0.96228400  0.06346766     1.49700
Zn313      Zn  0.03130804  0.06142268  0.96021198     1.49400
Zn314      Zn  0.93690518  0.96413962  0.96613503     1.49100
Zn315      Zn  0.93031708  0.06086170  0.06296803     1.49500
O316        O  0.98458270  0.01338309  0.01478235    -1.83200
O317        O  0.12043086  0.98701127  0.05163214    -0.73800
O318        O  0.01353417  0.03872354  0.87111139    -0.73700
O319        O  0.94898041  0.88346193  0.97521570    -0.73200
O320        O  0.11757366  0.05427226  0.98219046    -0.73900
O321        O  0.01485121  0.87187704  0.04454964    -0.73500
O322        O  0.94621664  0.97128104  0.88409222    -0.74000
O323        O  0.84057190  0.04436541  0.03991994    -0.73400
O324        O  0.02122921  0.14766159  0.98193211    -0.74200
O325        O  0.85506054  0.97339000  0.97666436    -0.73600
O326        O  0.95707091  0.14590843  0.05440570    -0.74100
O327        O  0.94874538  0.04887319  0.15073184    -0.74000
O328        O  0.02378372  0.98729653  0.14970217    -0.73700
C329        C  0.14588341  0.02659787  0.02140932     0.78000
C330        C  0.97723194  0.00092963  0.85017923     0.78500
C331        C  0.97888158  0.85025061  0.00663433     0.77500
C332        C  0.82026555  0.00561759  0.00432489     0.77900
C333        C  0.99532710  0.17335377  0.02430004     0.79000
C334        C  0.99096301  0.02342025  0.17727000     0.78100
C335        C  0.00423204  0.03775513  0.24268619    -0.01600
C336        C  0.01067778  0.23786209  0.03975481    -0.01600
Zn337      Zn  0.28552622  0.31320511  0.96227652     1.49700
Zn338      Zn  0.18986950  0.21779372  0.95607487     1.49400
Zn339      Zn  0.28918600  0.21787976  0.06102285     1.49100
Zn340      Zn  0.18842653  0.31812037  0.06009476     1.49500
O341        O  0.23694658  0.26512765  0.01117134    -1.83200
O342        O  0.27982873  0.30553321  0.88034543    -0.73800
O343        O  0.20246859  0.13063997  0.97471776    -0.73700
O344        O  0.38012913  0.23714170  0.04066756    -0.73200
O345        O  0.20957588  0.24153296  0.86545110    -0.73900
O346        O  0.36660154  0.30208458  0.97133400    -0.73500
O347        O  0.26153960  0.13301772  0.05177106    -0.74000
O348        O  0.20027810  0.29886491  0.14755466    -0.73400
O349        O  0.10379587  0.22379433  0.98511113    -0.74200
O350        O  0.26626371  0.22800500  0.14781052    -0.73600
O351        O  0.10218524  0.29431457  0.05127428    -0.74100
O352        O  0.20485093  0.40676557  0.03849373    -0.74000
O353        O  0.27345954  0.39415917  0.97188445    -0.73700
C354        C  0.24899360  0.27689932  0.84546554     0.78000
C355        C  0.22600053  0.10521953  0.01857872     0.78500
C356        C  0.40093196  0.27276790  0.00217810     0.77500
C357        C  0.22809761  0.25883006  0.17480944     0.77900
C358        C  0.07608765  0.25291182  0.02428671     0.79000
C359        C  0.24168742  0.42769363  0.00148798     0.78100
Zn360      Zn  0.18100447  0.96792034  0.31130988     1.49700
Zn361      Zn  0.28284819  0.06882538  0.31060099     1.49400
Zn362      Zn  0.28091692  0.96722656  0.20650282     1.49100
Zn363      Zn  0.18553681  0.06519754  0.21340578     1.49500
O364        O  0.23405213  0.01597574  0.26194685    -1.83200
O365        O  0.20156393  0.97926629  0.39835723    -0.73800
O366        O  0.36908920  0.04168724  0.30013747    -0.73700
O367        O  0.27089751  0.87999788  0.22914335    -0.73200
O368        O  0.27194585  0.04623030  0.39770346    -0.73900
O369        O  0.20815090  0.88169547  0.30328197    -0.73500
O370        O  0.36839376  0.97637509  0.22812764    -0.74000
O371        O  0.19488243  0.05739911  0.13138751    -0.73400
O372        O  0.26313286  0.15992450  0.29037106    -0.74200
O373        O  0.26052541  0.98844429  0.11638207    -0.73600
O374        O  0.19581356  0.14668893  0.22257646    -0.74100
O375        O  0.10370609  0.05547818  0.22364619    -0.74000
O376        O  0.09048453  0.98809587  0.29112322    -0.73700
C377        C  0.24137296  0.00815954  0.42504645     0.78000
C378        C  0.39557921  0.00300330  0.26922357     0.78500
C379        C  0.24564410  0.85416253  0.27187063     0.77500
C380        C  0.22449205  0.02708399  0.09661116     0.77900
C381        C  0.22636564  0.18070630  0.25277983     0.79000
C382        C  0.06970336  0.02528343  0.25419990     0.78100
Zn383      Zn  0.93764015  0.31228511  0.31424064     1.49700
Zn384      Zn  0.03592474  0.21640508  0.32006025     1.49400
Zn385      Zn  0.93406921  0.21603356  0.21858017     1.49100
Zn386      Zn  0.03403166  0.31712627  0.21700123     1.49500
O387        O  0.98705645  0.26395868  0.26674629    -1.83200
O388        O  0.94542430  0.30277955  0.39631035    -0.73800
O389        O  0.02441136  0.12914761  0.29645636    -0.73700
O390        O  0.84351437  0.23350114  0.23795810    -0.73200
O391        O  0.01581752  0.23876226  0.41089624    -0.73900
O392        O  0.85592384  0.30112056  0.30526021    -0.73500
O393        O  0.95627811  0.13165522  0.22739220    -0.74000
O394        O  0.02549547  0.29304992  0.13135696    -0.73400
O395        O  0.12265579  0.22693128  0.29454973    -0.74200
O396        O  0.96025150  0.22208680  0.13370475    -0.73600
O397        O  0.11956029  0.29471142  0.22555982    -0.74100
O398        O  0.01537102  0.40716971  0.23495494    -0.74000
O399        O  0.94753418  0.39365912  0.30181136    -0.73700
C400        C  0.97636259  0.27401412  0.43115792     0.78000
C401        C  0.99479277  0.10359314  0.25610749     0.78500
C402        C  0.82215418  0.27004085  0.27526815     0.77500
C403        C  0.99930802  0.25074656  0.10599824     0.77900
C404        C  0.14791955  0.25606267  0.25393185     0.79000
C405        C  0.97779828  0.42790854  0.27153043     0.78100
C406        C  0.21414406  0.24595163  0.24029928    -0.01600
C407        C  0.60746502  0.13783261  0.13872720    -0.01600
C408        C  0.61037361  0.63766935  0.63893494    -0.01600
C409        C  0.49426429  0.08634584  0.24894234    -0.20400
C410        C  0.49692338  0.02553109  0.24176778    -0.08400
C411        C  0.52909299  0.00243334  0.19442736     0.30400
C412        C  0.56203539  0.03860441  0.16037835    -0.20400
C413        C  0.56614730  0.09836917  0.17275544    -0.08500
C414        C  0.52783580  0.12255071  0.21446931     0.30400
F415        F  0.52518581  0.18099683  0.22365943    -0.19000
H416        H  0.46685426  0.10584428  0.28222724     0.18800
H417        H  0.58315224  0.01874888  0.12318151     0.18800
F418        F  0.52849819  0.94560825  0.17819990    -0.19000
C419        C  0.37838238  0.29341731  0.43705537    -0.20400
C420        C  0.39193410  0.35277667  0.43244928    -0.08400
C421        C  0.43523853  0.37608103  0.46972290     0.30400
C422        C  0.47095198  0.33914808  0.50116684    -0.20400
C423        C  0.46324574  0.27855361  0.49801677    -0.08500
C424        C  0.41422963  0.25628741  0.46742871     0.30400
F425        F  0.39879860  0.19925543  0.46651069    -0.19000
H426        H  0.34024973  0.27452641  0.41655823     0.18800
H427        H  0.50552836  0.35790819  0.52754422     0.18800
F428        F  0.44619737  0.43410499  0.47220283    -0.19000
C429        C  0.34593839  0.31497548  0.31316171    -0.20400
C430        C  0.31972161  0.35820262  0.34841277    -0.08400
C431        C  0.26018679  0.37121081  0.33911834     0.30400
C432        C  0.22649249  0.33459204  0.30542911    -0.20400
C433        C  0.25137710  0.28625438  0.27662194    -0.08500
C434        C  0.31242708  0.27945950  0.27771699     0.30400
F435        F  0.33979786  0.23792730  0.24545505    -0.19000
H436        H  0.39262959  0.30722528  0.31505205     0.18800
H437        H  0.18093398  0.34622038  0.30118530     0.18800
F438        F  0.23435180  0.42068212  0.35898251    -0.19000
C439        C  0.49332597  0.44736387  0.30752987    -0.20400
C440        C  0.46867511  0.49381270  0.27596891    -0.08400
C441        C  0.40759424  0.50078682  0.27601495     0.30400
C442        C  0.37352381  0.46666671  0.31187091    -0.20400
C443        C  0.39920770  0.42500639  0.34895167    -0.08500
C444        C  0.45906437  0.41208735  0.34177967     0.30400
F445        F  0.48485062  0.36393624  0.36436629    -0.19000
H446        H  0.53916846  0.43627369  0.30534259     0.18800
H447        H  0.32683956  0.47460053  0.31281690     0.18800
F448        F  0.38074120  0.54166513  0.24276899    -0.19000
C449        C  0.29892084  0.52661603  0.46920922    -0.20400
C450        C  0.25067470  0.50235715  0.49858049    -0.08400
C451        C  0.24374224  0.44144736  0.49859486     0.30400
C452        C  0.28088348  0.40699710  0.46584849    -0.20400
C453        C  0.32470750  0.43227691  0.43089608    -0.08500
C454        C  0.33644083  0.49222516  0.43746049     0.30400
F455        F  0.38539944  0.51818936  0.41644688    -0.19000
H456        H  0.30992763  0.57230635  0.47148283     0.18800
H457        H  0.27349622  0.36037424  0.46514022     0.18800
F458        F  0.20129058  0.41494533  0.53024857    -0.19000
C459        C  0.88369143  0.98557307  0.34551149    -0.20400
C460        C  0.89758438  0.92618808  0.35020439    -0.08400
C461        C  0.94091664  0.90310133  0.31279205     0.30400
C462        C  0.97349136  0.93967518  0.27776226    -0.20400
C463        C  0.96471432  0.00016293  0.27943381    -0.08500
C464        C  0.91727854  0.02244698  0.31231079     0.30400
F465        F  0.90068363  0.07915907  0.31208867    -0.19000
H466        H  0.84619827  0.00464806  0.36691815     0.18800
H467        H  0.00695019  0.92068807  0.25016723     0.18800
F468        F  0.95322960  0.84528340  0.31150627    -0.19000
C469        C  0.96117949  0.86571881  0.43893532    -0.20400
C470        C  0.90177285  0.85217878  0.43247587    -0.08400
C471        C  0.87703190  0.80955126  0.46927195     0.30400
C472        C  0.91285363  0.77521458  0.50346873    -0.20400
C473        C  0.97371021  0.78370174  0.50352763    -0.08500
C474        C  0.99680549  0.83248774  0.47366302     0.30400
F475        F  0.05304347  0.85068453  0.47827737    -0.19000
H476        H  0.98099286  0.90289268  0.41796692     0.18800
H477        H  0.89292861  0.74112605  0.52922153     0.18800
F478        F  0.81872827  0.79816814  0.46877050    -0.19000
C479        C  0.76152709  0.90973320  0.43214504    -0.20400
C480        C  0.82205207  0.91984494  0.43091420    -0.08400
C481        C  0.84553766  0.96191215  0.46952995     0.30400
C482        C  0.80890756  0.99749492  0.50158529    -0.20400
C483        C  0.74796461  0.99173302  0.49759325    -0.08500
C484        C  0.72466791  0.94571788  0.46337895     0.30400
F485        F  0.66678271  0.93323099  0.45993221    -0.19000
H486        H  0.74155466  0.87375813  0.40915614     0.18800
H487        H  0.82841269  0.03040943  0.52940459     0.18800
F488        F  0.90402202  0.97122133  0.47365724    -0.19000
C489        C  0.78954107  0.87196390  0.30991794    -0.20400
C490        C  0.83040864  0.84599687  0.34782780    -0.08400
C491        C  0.84188996  0.78588380  0.34122628     0.30400
C492        C  0.80546770  0.75206134  0.30737199    -0.20400
C493        C  0.75914740  0.77722017  0.27584154    -0.08500
C494        C  0.75413854  0.83823662  0.27462654     0.30400
F495        F  0.71401778  0.86540827  0.24057935    -0.19000
H496        H  0.78300569  0.91871217  0.31000253     0.18800
H497        H  0.81534935  0.70607956  0.30559261     0.18800
F498        F  0.88948287  0.75921756  0.36435227    -0.19000
C499        C  0.72490962  0.24431135  0.19049408    -0.20400
C500        C  0.72086782  0.23865080  0.25096787    -0.08400
C501        C  0.68728094  0.19247108  0.27440946     0.30400
C502        C  0.65325578  0.15886830  0.23822671    -0.20400
C503        C  0.65013764  0.17066317  0.17836076    -0.08500
C504        C  0.69197556  0.20945543  0.15443470     0.30400
F505        F  0.69767400  0.21780800  0.09622110    -0.19000
H506        H  0.75344639  0.27658566  0.17103251     0.18800
H507        H  0.62996106  0.12322862  0.25821677     0.18800
F508        F  0.68707411  0.17756957  0.33158422    -0.19000
C509        C  0.68565924  0.62322906  0.56069854    -0.20400
C510        C  0.64268486  0.59802154  0.59678821    -0.08400
C511        C  0.62743418  0.53925445  0.58746918     0.30400
C512        C  0.66309803  0.50462992  0.55398621    -0.20400
C513        C  0.71183515  0.52855391  0.52533836    -0.08500
C514        C  0.71952990  0.58910463  0.52495222     0.30400
F515        F  0.76065596  0.61512766  0.49106863    -0.19000
H516        H  0.69501582  0.66933345  0.56220946     0.18800
H517        H  0.65083419  0.45934539  0.54996378     0.18800
F518        F  0.57725329  0.51514633  0.60786386    -0.19000
C519        C  0.34686131  0.97780285  0.95917130    -0.20400
C520        C  0.32279912  0.93599389  0.92103616    -0.08400
C521        C  0.26194190  0.93905932  0.91001492     0.30400
C522        C  0.22636792  0.97106270  0.94641635    -0.20400
C523        C  0.25028504  0.00460001  0.99187151    -0.08500
C524        C  0.31145538  0.00967876  0.99603070     0.30400
F525        F  0.33725295  0.04461460  0.03639254    -0.19000
H526        H  0.39386400  0.98227485  0.96376570     0.18800
H527        H  0.18006182  0.97018695  0.93695084     0.18800
F528        F  0.23621889  0.91546500  0.86213119    -0.19000
C529        C  0.40264378  0.86311785  0.98954345    -0.20400
C530        C  0.39971249  0.85437787  0.92899135    -0.08400
C531        C  0.43500747  0.80977020  0.90421955     0.30400
C532        C  0.46716570  0.77333671  0.93955040    -0.20400
C533        C  0.47074321  0.78401284  0.99954368    -0.08500
C534        C  0.44492987  0.83521378  0.02146491     0.30400
F535        F  0.46601929  0.86426144  0.06865551    -0.19000
H536        H  0.37740834  0.89461030  0.01296130     0.18800
H537        H  0.49157892  0.73829669  0.91933143     0.18800
F538        F  0.44018288  0.80218646  0.84580935    -0.19000
C539        C  0.37823773  0.97202660  0.81342231    -0.20400
C540        C  0.40437531  0.93497047  0.85477341    -0.08400
C541        C  0.46525303  0.93906526  0.86402866     0.30400
C542        C  0.49914088  0.97003983  0.82577066    -0.20400
C543        C  0.47363187  0.00112845  0.77958484    -0.08500
C544        C  0.41225312  0.00405082  0.77567796     0.30400
F545        F  0.38490013  0.03771405  0.73548679    -0.19000
H546        H  0.33117288  0.97313974  0.80797953     0.18800
H547        H  0.54557802  0.97011026  0.83440289     0.18800
F548        F  0.49307770  0.91573229  0.91067834    -0.19000
C549        C  0.29099307  0.81401924  0.87638136    -0.20400
C550        C  0.33122732  0.85221861  0.84971998    -0.08400
C551        C  0.34181401  0.84618568  0.78936645     0.30400
C552        C  0.30592738  0.81174567  0.75622219    -0.20400
C553        C  0.26034917  0.77968738  0.78184171    -0.08500
C554        C  0.25543688  0.77856259  0.84287919     0.30400
F555        F  0.21564070  0.74407925  0.87001955    -0.19000
H556        H  0.28516818  0.81421105  0.92328658     0.18800
H557        H  0.31594485  0.80990256  0.71023733     0.18800
F558        F  0.38916861  0.86897110  0.76196461    -0.19000
C559        C  0.56250028  0.76559206  0.54455830    -0.20400
C560        C  0.50806202  0.74507413  0.52512336    -0.08400
C561        C  0.49652304  0.68514163  0.52951310     0.30400
C562        C  0.53083226  0.65135235  0.56516541    -0.20400
C563        C  0.57645743  0.67671395  0.59783280    -0.08500
C564        C  0.59522000  0.73327044  0.58281402     0.30400
F565        F  0.64654069  0.75663189  0.60136816    -0.19000
H566        H  0.58133885  0.80590540  0.52947158     0.18800
H567        H  0.52025871  0.60558115  0.56927814     0.18800
F568        F  0.45275949  0.65898124  0.49911410    -0.19000
C569        C  0.03129251  0.57076186  0.15253668    -0.20400
C570        C  0.07830301  0.60026913  0.17939928    -0.08400
C571        C  0.09520671  0.58360581  0.23601068     0.30400
C572        C  0.06157227  0.54444413  0.26595813    -0.20400
C573        C  0.00669549  0.52759574  0.24443802    -0.08500
C574        C  0.99561812  0.53470855  0.18467266     0.30400
F575        F  0.95190727  0.50574243  0.15687753    -0.19000
H576        H  0.02116309  0.57722026  0.10688729     0.18800
H577        H  0.07931711  0.52758146  0.30613929     0.18800
F578        F  0.14486993  0.60246372  0.26242680    -0.19000
C579        C  0.12887464  0.71408814  0.22151993    -0.20400
C580        C  0.15416668  0.68051592  0.17665121    -0.08400
C581        C  0.21293038  0.69074119  0.16139775     0.30400
C582        C  0.24719571  0.72477126  0.19698603    -0.20400
C583        C  0.22308540  0.75284047  0.24612844    -0.08500
C584        C  0.16238885  0.75098330  0.25480396     0.30400
F585        F  0.13542020  0.78366804  0.29632149    -0.19000
H586        H  0.08298941  0.71072146  0.23198702     0.18800
H587        H  0.29233696  0.72984252  0.18411638     0.18800
F588        F  0.23743504  0.67053414  0.11135232    -0.19000
C589        C  0.12813519  0.58972748  0.04458986    -0.20400
C590        C  0.14637513  0.59846542  0.10243897    -0.08400
C591        C  0.19075573  0.56213909  0.12497252     0.30400
C592        C  0.22191088  0.52657151  0.08808793    -0.20400
C593        C  0.21089889  0.52728807  0.02804284    -0.08500
C594        C  0.16084151  0.55639208  0.00706665     0.30400
F595        F  0.14144804  0.55227545  0.95132504    -0.19000
H596        H  0.08863846  0.60905066  0.02739650     0.18800
H597        H  0.25677015  0.50020314  0.10619109     0.18800
F598        F  0.20729958  0.56379244  0.18162088    -0.19000
C599        C  0.98725475  0.73659590  0.09225712    -0.20400
C600        C  0.00727808  0.75177196  0.03649573    -0.08400
C601        C  0.06746732  0.74571546  0.02460222     0.30400
C602        C  0.10204348  0.71386022  0.06185243    -0.20400
C603        C  0.07666232  0.68407752  0.10894552    -0.08500
C604        C  0.02021359  0.70088567  0.12727900     0.30400
F605        F  0.99684796  0.68470079  0.17917662    -0.19000
H606        H  0.94623973  0.75224211  0.10961103     0.18800
H607        H  0.14787018  0.70844776  0.05119137     0.18800
F608        F  0.09359555  0.77082688  0.97796661    -0.19000
C609        C  0.03301016  0.15361504  0.56193404    -0.20400
C610        C  0.06332382  0.17735253  0.61010068    -0.08400
C611        C  0.04615597  0.23410984  0.62829127     0.30400
C612        C  0.01043353  0.26714720  0.59333430    -0.20400
C613        C  0.99495921  0.24741782  0.53759491    -0.08500
C614        C  0.99961442  0.18781099  0.52607710     0.30400
F615        F  0.97124911  0.16199812  0.48079166    -0.19000
H616        H  0.03536647  0.10911781  0.54890318     0.18800
H617        H  0.99528868  0.30823168  0.61074864     0.18800
F618        F  0.06386632  0.25951136  0.67887374    -0.19000
C619        C  0.15679417  0.01754059  0.53669267    -0.20400
C620        C  0.21356727  0.03566085  0.52348881    -0.08400
C621        C  0.22695410  0.09485131  0.53079453     0.30400
C622        C  0.19235592  0.12875914  0.56651286    -0.20400
C623        C  0.14295550  0.10489928  0.59470806    -0.08500
C624        C  0.12217992  0.05054770  0.57284509     0.30400
F625        F  0.06928618  0.02741037  0.58696295    -0.19000
H626        H  0.13865648  0.97749497  0.51959839     0.18800
H627        H  0.20581547  0.17324821  0.57164800     0.18800
F628        F  0.27238688  0.12052196  0.50262740    -0.19000
C629        C  0.94380419  0.31796910  0.91129258    -0.20400
C630        C  0.89732587  0.34876520  0.93745667    -0.08400
C631        C  0.88348553  0.33659606  0.99596935     0.30400
C632        C  0.92013682  0.30181239  0.02858220    -0.20400
C633        C  0.97014917  0.27548208  0.00365514    -0.08500
C634        C  0.97901830  0.28129436  0.94327907     0.30400
F635        F  0.02164124  0.25196059  0.91444204    -0.19000
H636        H  0.95399154  0.32323438  0.86561573     0.18800
H637        H  0.90724651  0.29487336  0.07328823     0.18800
F638        F  0.83377194  0.35578119  0.02201380    -0.19000
C639        C  0.76181414  0.43888021  0.91338314    -0.20400
C640        C  0.81982184  0.42963502  0.93164473    -0.08400
C641        C  0.84175217  0.46519181  0.97695073     0.30400
C642        C  0.80465629  0.50090735  0.00823957    -0.20400
C643        C  0.74443216  0.50234154  0.99632273    -0.08500
C644        C  0.72399847  0.47323014  0.94577045     0.30400
F645        F  0.66864253  0.47865447  0.92530801    -0.19000
H646        H  0.74488280  0.41939693  0.87386456     0.18800
H647        H  0.82328310  0.52627293  0.04346156     0.18800
F648        F  0.89833350  0.46306304  0.99412546    -0.19000
C649        C  0.87207389  0.45389150  0.81165891    -0.20400
C650        C  0.89746661  0.42912664  0.86175693    -0.08400
C651        C  0.95381310  0.44810280  0.87833631     0.30400
C652        C  0.98486399  0.48469401  0.84224324    -0.20400
C653        C  0.96475125  0.49733174  0.78577257    -0.08500
C654        C  0.90559124  0.48583871  0.77298085     0.30400
F655        F  0.87908650  0.50642427  0.72437889    -0.19000
H656        H  0.82672489  0.44562087  0.80073501     0.18800
H657        H  0.02515371  0.50262254  0.85915111     0.18800
F658        F  0.97956769  0.43270196  0.92929812    -0.19000
C659        C  0.84983801  0.32628409  0.80602405    -0.20400
C660        C  0.82751493  0.34364765  0.86072062    -0.08400
C661        C  0.77937028  0.31232849  0.88302392     0.30400
C662        C  0.74608593  0.27816680  0.84590117    -0.20400
C663        C  0.76149215  0.27266107  0.78680443    -0.08500
C664        C  0.81842289  0.28901174  0.77054502     0.30400
F665        F  0.84531885  0.26686650  0.72260419    -0.19000
H666        H  0.89194567  0.34097229  0.79042200     0.18800
H667        H  0.70776221  0.25667068  0.86334715     0.18800
F668        F  0.76233964  0.31723985  0.93948355    -0.19000
C669        C  0.49348301  0.18746423  0.02897349    -0.20400
C670        C  0.50500692  0.24738715  0.02698409    -0.08400
C671        C  0.55246024  0.26924283  0.05890045     0.30400
C672        C  0.57401146  0.23770237  0.10446859    -0.20400
C673        C  0.56679574  0.17711984  0.10438592    -0.08500
C674        C  0.52521978  0.15213889  0.06580677     0.30400
F675        F  0.51694166  0.09376028  0.06168469    -0.19000
H676        H  0.46074224  0.16783822  0.00095828     0.18800
H677        H  0.60209668  0.26077848  0.13415364     0.18800
F678        F  0.58548784  0.31464788  0.04018768    -0.19000
C679        C  0.56024208  0.52530370  0.74936293    -0.20400
C680        C  0.49952935  0.53437614  0.74963817    -0.08400
C681        C  0.47671821  0.58441609  0.72175895     0.30400
C682        C  0.51276874  0.61894521  0.68889772    -0.20400
C683        C  0.57181051  0.60445777  0.68126031    -0.08500
C684        C  0.59627099  0.56032023  0.71633720     0.30400
F685        F  0.65441606  0.54833446  0.71542587    -0.19000
H686        H  0.57987939  0.49033450  0.77416006     0.18800
H687        H  0.49352357  0.65734971  0.66963797     0.18800
F688        F  0.42041878  0.60243074  0.72667078    -0.19000
C689        C  0.17126463  0.23275462  0.65382492    -0.20400
C690        C  0.15572250  0.17724082  0.67461801    -0.08400
C691        C  0.18946516  0.15457708  0.72111843     0.30400
C692        C  0.22579280  0.19077091  0.75269376    -0.20400
C693        C  0.22900274  0.25023375  0.73986121    -0.08500
C694        C  0.20538190  0.26972617  0.68654955     0.30400
F695        F  0.21538131  0.32338448  0.66417532    -0.19000
H696        H  0.15513029  0.24894113  0.61256098     0.18800
H697        H  0.25023975  0.17238197  0.78868125     0.18800
F698        F  0.18903379  0.09789864  0.73672976    -0.19000
C699        C  0.99845909  0.08586661  0.75296775    -0.20400
C700        C  0.00903807  0.02597318  0.75086966    -0.08400
C701        C  0.06079276  0.00568131  0.72432976     0.30400
C702        C  0.09625251  0.04435317  0.69570036    -0.20400
C703        C  0.07860837  0.10236295  0.68660200    -0.08500
C704        C  0.03281180  0.12377327  0.72204911     0.30400
F705        F  0.02033691  0.18062878  0.72877111    -0.19000
H706        H  0.96285060  0.10352835  0.77879077     0.18800
H707        H  0.13667639  0.02732453  0.67802684     0.18800
F708        F  0.07886890  0.94944649  0.72555022    -0.19000
C709        C  0.66351301  0.74920102  0.74902968    -0.20400
C710        C  0.72414119  0.74009051  0.74813753    -0.08400
C711        C  0.74700282  0.69219712  0.71659191     0.30400
C712        C  0.71022428  0.65797781  0.68385366    -0.20400
C713        C  0.65062011  0.67168358  0.67897895    -0.08500
C714        C  0.62708203  0.71588727  0.71477634     0.30400
F715        F  0.56911894  0.72864746  0.71474027    -0.19000
H716        H  0.64436603  0.78333351  0.77563313     0.18800
H717        H  0.72932546  0.62036769  0.66275113     0.18800
F718        F  0.80408654  0.67607152  0.71765015    -0.19000
C719        C  0.69655879  0.08665103  0.00782671    -0.20400
C720        C  0.72003180  0.03486833  0.02984367    -0.08400
C721        C  0.71861333  0.02588784  0.09033432     0.30400
C722        C  0.68407870  0.06113857  0.12460273    -0.20400
C723        C  0.64791774  0.10374393  0.09887418    -0.08500
C724        C  0.65746459  0.11834643  0.03990292     0.30400
F725        F  0.63454386  0.16613957  0.01376111    -0.19000
H726        H  0.70965564  0.10525261  0.96682624     0.18800
H727        H  0.68295621  0.05327750  0.17115691     0.18800
F728        F  0.75164894  0.98423494  0.11642016    -0.19000
loop_ 
_geom_bond_atom_site_label_1 
_geom_bond_atom_site_label_2 
_geom_bond_distance 
_geom_bond_site_symmetry_2 
_ccdc_geom_bond_type 
C1           C47   1.561   1_556  S
C1          C206   1.568   1_565  S
C1          C332   1.551   1_566  S
C1          C720   1.494   1_566  S
C2           C51   1.545       .  S
C2          C130   1.554       .  S
C2          C203   1.556       .  S
C2          C710   1.500       .  S
C3          C129   1.550       .  S
C3          C201   1.555   1_565  S
C3          C330   1.547   1_565  S
C3          C700   1.492   1_665  S
C4           C23   1.556       .  S
C4          C107   1.559       .  S
C4          C354   1.557       .  S
C4          C693   1.501       .  S
Zn5           O9   1.992       .  S
Zn5          O10   2.083       .  S
Zn5          O14   2.105       .  S
Zn5          O21   2.190       .  S
Zn6           O9   1.985       .  S
Zn6          O11   2.081       .  S
Zn6          O13   2.074       .  S
Zn6          O17   2.167       .  S
Zn7           O9   1.995       .  S
Zn7          O12   2.077       .  S
Zn7          O15   2.041       .  S
Zn7          O18   2.139       .  S
Zn8           O9   1.936       .  S
Zn8          O16   1.903       .  S
Zn8          O19   1.887       .  S
Zn8          O20   1.903       .  S
O10          C22   1.284       .  A
O11          C23   1.284       .  A
O12          C24   1.283       .  A
O13          C22   1.283       .  A
O14          C24   1.288       .  A
O15          C23   1.278       .  A
O16          C25   1.257       .  A
O17          C26   1.295       .  A
O18          C25   1.289       .  A
O19          C26   1.251       .  A
O20          C27   1.257       .  A
O21          C27   1.297       .  A
C22          C29   1.557       .  S
C24          C28   1.573       .  S
C25         C261   1.547       .  S
C26         C157   1.544       .  S
C27         C207   1.562       .  S
C28         C104   1.557       .  S
C28         C254   1.536       .  S
C28         C680   1.503       .  S
C29         C255   1.557   1_556  S
C29         C356   1.554   1_556  S
C29         C670   1.497   1_556  S
Zn30         O34   1.996       .  S
Zn30         O35   2.183       .  S
Zn30         O39   2.082       .  S
Zn30         O46   2.065       .  S
Zn31         O34   1.926   1_556  S
Zn31         O36   1.919       .  S
Zn31         O38   1.903       .  S
Zn31         O42   1.897       .  S
Zn32         O34   1.985       .  S
Zn32         O37   2.065       .  S
Zn32         O40   2.162       .  S
Zn32         O43   2.069       .  S
Zn33         O34   1.989   1_556  S
Zn33         O41   2.061       .  S
Zn33         O44   2.156       .  S
Zn33         O45   2.077       .  S
O35          C47   1.294       .  A
O36          C48   1.257   1_556  A
O37          C49   1.282       .  A
O38          C47   1.258   1_556  A
O39          C49   1.285       .  A
O40          C48   1.292       .  A
O41          C50   1.281   1_556  A
O42          C51   1.256       .  A
O43          C50   1.282       .  A
O44          C51   1.292       .  A
O45          C52   1.284   1_556  A
O46          C52   1.281       .  A
C48          C58   1.567   1_554  S
C49         C234   1.563       .  S
C50          C55   1.569       .  S
C52         C158   1.562       .  S
C53         C630   1.522       .  S
C53         C640   1.531       .  S
C53         C650   1.528       .  S
C53         C660   1.533       .  S
C54         C108   1.564       .  S
C54         C126   1.547   1_455  S
C54         C304   1.570   1_455  S
C54         C653   1.512   1_455  S
C55         C181   1.575       .  S
C55         C253   1.566       .  S
C55         C643   1.516   1_554  S
C56          C80   1.566       .  S
C56         C279   1.555   1_565  S
C56         C377   1.556   1_565  S
C56         C620   1.493   1_565  S
C57         C610   1.544       .  S
C57         C623   1.548       .  S
C57         C690   1.536       .  S
C57         C703   1.532       .  S
C58         C127   1.563       .  S
C58         C331   1.545   1_556  S
C58         C600   1.499   1_656  S
C59         C106   1.552       .  S
C59         C256   1.554   1_556  S
C59         C359   1.538   1_556  S
C59         C593   1.494   1_556  S
C60          C84   1.545       .  S
C60         C150   1.560       .  S
C60         C379   1.566       .  S
C60         C583   1.496       .  S
C61         C570   1.510       .  S
C61         C580   1.511       .  S
C61         C590   1.519       .  S
C61         C603   1.519       .  S
C62          C81   1.556       .  S
C62         C154   1.547       .  S
C62         C281   1.558       .  S
C62         C560   1.495       .  S
Zn63         O67   1.978       .  S
Zn63         O68   2.182       .  S
Zn63         O72   2.069       .  S
Zn63         O79   2.067       .  S
Zn64         O67   1.932       .  S
Zn64         O69   1.895       .  S
Zn64         O71   1.900       .  S
Zn64         O75   1.883       .  S
Zn65         O67   1.984       .  S
Zn65         O70   2.060       .  S
Zn65         O73   2.178       .  S
Zn65         O76   2.065       .  S
Zn66         O67   1.989       .  S
Zn66         O74   2.049       .  S
Zn66         O77   2.167       .  S
Zn66         O78   2.062       .  S
O68          C80   1.297       .  A
O69          C81   1.256       .  A
O70          C82   1.281       .  A
O71          C80   1.255       .  A
O72          C82   1.282       .  A
O73          C81   1.295       .  A
O74          C83   1.280       .  A
O75          C84   1.250       .  A
O76          C83   1.284       .  A
O77          C84   1.293       .  A
O78          C85   1.282       .  A
O79          C85   1.284       .  A
C82         C132   1.561       .  S
C83         C235   1.560       .  S
C85         C233   1.561       .  S
Zn86         O90   1.925       .  S
Zn86         O91   1.889       .  S
Zn86         O95   1.896       .  S
Zn86        O102   1.904       .  S
Zn87         O90   1.974       .  S
Zn87         O92   2.058       .  S
Zn87         O94   2.159       .  S
Zn87         O98   2.058       .  S
Zn88         O90   1.981       .  S
Zn88         O93   2.158       .  S
Zn88         O96   2.053       .  S
Zn88         O99   2.049       .  S
Zn89         O90   1.981       .  S
Zn89         O97   2.067       .  S
Zn89        O100   2.048       .  S
Zn89        O101   2.154       .  S
O91         C103   1.253       .  A
O92         C104   1.280       .  A
O93         C105   1.291       .  A
O94         C103   1.294       .  A
O95         C105   1.256       .  A
O96         C104   1.282       .  A
O97         C106   1.284       .  A
O98         C107   1.282       .  A
O99         C106   1.280       .  A
O100        C107   1.279       .  A
O101        C108   1.292       .  A
O102        C108   1.256       .  A
C103        C235   1.541       .  S
C105        C132   1.546       .  S
Zn109       O113   1.923   1_455  S
Zn109       O114   1.905       .  S
Zn109       O118   1.907       .  S
Zn109       O125   1.899       .  S
Zn110       O113   1.995       .  S
Zn110       O115   2.078       .  S
Zn110       O117   2.155       .  S
Zn110       O121   2.066       .  S
Zn111       O113   1.988   1_455  S
Zn111       O116   2.177       .  S
Zn111       O119   2.070       .  S
Zn111       O122   2.050       .  S
Zn112       O113   1.987       .  S
Zn112       O120   2.055       .  S
Zn112       O123   2.062       .  S
Zn112       O124   2.138       .  S
O114        C126   1.257   1_455  A
O115        C127   1.283       .  A
O116        C128   1.293       .  A
O117        C126   1.291       .  A
O118        C128   1.258       .  A
O119        C127   1.284   1_455  A
O120        C129   1.281       .  A
O121        C130   1.284       .  A
O122        C129   1.282   1_455  A
O123        C130   1.282       .  A
O124        C131   1.290       .  A
O125        C131   1.254   1_455  A
C128        C132   1.555       .  S
C131        C233   1.536   1_655  S
C132        C553   1.501       .  S
Zn133       O137   1.957       .  S
Zn133       O138   2.011       .  S
Zn133       O142   2.126       .  S
Zn133       O149   2.047       .  S
Zn134       O137   1.981       .  S
Zn134       O139   2.171       .  S
Zn134       O141   2.091       .  S
Zn134       O145   2.055       .  S
Zn135       O137   1.942       .  S
Zn135       O140   1.901       .  S
Zn135       O143   1.886       .  S
Zn135       O146   1.877       .  S
Zn136       O137   1.986       .  S
Zn136       O144   2.187       .  S
Zn136       O147   2.064       .  S
Zn136       O148   2.094       .  S
O138        C150   1.272       .  A
O139        C151   1.295       .  A
O140        C152   1.252       .  A
O141        C150   1.285       .  A
O142        C152   1.289       .  A
O143        C151   1.255       .  A
O144        C153   1.295       .  A
O145        C154   1.282       .  A
O146        C153   1.252       .  A
O147        C154   1.283       .  A
O148        C155   1.286       .  A
O149        C155   1.280       .  A
C151        C259   1.542       .  S
C152        C158   1.548       .  S
C153        C234   1.546       .  S
C155        C285   1.565       .  S
C156        C520   1.536       .  S
C156        C530   1.531       .  S
C156        C540   1.519       .  S
C156        C550   1.524       .  S
C157        C204   1.567       .  S
C157        C280   1.556       .  S
C157        C543   1.501       .  S
C158        C257   1.566       .  S
C158        C533   1.504   1_554  S
C159        C179   1.548       .  S
C159        C226   1.563       .  S
C159        C306   1.558       .  S
C159        C513   1.490       .  S
Zn160       O164   1.987       .  S
Zn160       O165   2.081       .  S
Zn160       O169   2.162       .  S
Zn160       O176   2.062       .  S
Zn161       O164   1.987       .  S
Zn161       O166   2.169       .  S
Zn161       O168   2.041       .  S
Zn161       O172   2.053       .  S
Zn162       O164   1.923       .  S
Zn162       O167   1.899       .  S
Zn162       O170   1.910       .  S
Zn162       O173   1.907       .  S
Zn163       O164   2.002       .  S
Zn163       O171   2.200       .  S
Zn163       O174   2.082       .  S
Zn163       O175   2.072       .  S
O165        C177   1.284       .  A
O166        C178   1.292       .  A
O167        C179   1.255       .  A
O168        C177   1.278       .  A
O169        C179   1.294       .  A
O170        C178   1.258       .  A
O171        C180   1.295       .  A
O172        C181   1.281       .  A
O173        C180   1.256       .  A
O174        C181   1.285       .  A
O175        C182   1.284       .  A
O176        C182   1.283       .  A
C177        C234   1.567       .  S
C178        C286   1.560       .  S
C180        C183   1.562       .  S
C182        C259   1.568       .  S
C183        C229   1.552       .  S
C183        C402   1.548       .  S
C183        C500   1.499       .  S
Zn184       O188   1.930   1_565  S
Zn184       O189   1.881       .  S
Zn184       O193   1.902       .  S
Zn184       O200   1.914       .  S
Zn185       O188   1.987       .  S
Zn185       O190   2.080       .  S
Zn185       O192   2.187       .  S
Zn185       O196   2.087       .  S
Zn186       O188   1.994   1_565  S
Zn186       O191   2.182       .  S
Zn186       O194   2.062       .  S
Zn186       O197   2.094       .  S
Zn187       O188   1.981       .  S
Zn187       O195   2.039       .  S
Zn187       O198   2.070       .  S
Zn187       O199   2.138       .  S
O189        C201   1.253   1_565  A
O190        C202   1.286       .  A
O191        C203   1.294       .  A
O192        C201   1.296       .  A
O193        C203   1.256       .  A
O194        C202   1.282   1_565  A
O195        C204   1.278       .  A
O196        C205   1.284       .  A
O197        C204   1.287   1_565  A
O198        C205   1.282       .  A
O199        C206   1.289       .  A
O200        C206   1.257   1_565  A
C202        C232   1.562       .  S
C205        C207   1.559       .  S
C207        C227   1.561       .  S
C207        C663   1.504       .  S
Zn208       O212   1.927       .  S
Zn208       O213   1.915       .  S
Zn208       O217   1.928       .  S
Zn208       O224   1.906       .  S
Zn209       O212   2.004       .  S
Zn209       O214   2.069       .  S
Zn209       O216   2.166       .  S
Zn209       O220   2.055       .  S
Zn210       O212   1.997       .  S
Zn210       O215   2.164       .  S
Zn210       O218   2.075       .  S
Zn210       O221   2.066       .  S
Zn211       O212   1.988       .  S
Zn211       O219   2.071       .  S
Zn211       O222   2.066       .  S
Zn211       O223   2.192       .  S
O213        C225   1.261       .  A
O214        C226   1.283       .  A
O215        C227   1.291       .  A
O216        C225   1.291       .  A
O217        C227   1.260       .  A
O218        C226   1.283       .  A
O219        C228   1.284       .  A
O220        C229   1.281       .  A
O221        C228   1.283       .  A
O222        C229   1.284       .  A
O223        C230   1.295       .  A
O224        C230   1.255       .  A
C225        C261   1.554       .  S
C228        C310   1.554       .  S
C230        C232   1.554       .  S
C231        C460   1.530       .  S
C231        C470   1.520       .  S
C231        C480   1.533       .  S
C231        C490   1.529       .  S
C232        C282   1.561       .  S
C232        C483   1.511   1_545  S
C233        C309   1.570   1_455  S
C233        C473   1.510   1_455  S
C234        C493   1.505       .  S
C235        C308   1.568       .  S
C235        C450   1.506       .  S
Zn236       O240   1.970       .  S
Zn236       O241   2.072       .  S
Zn236       O245   2.116       .  S
Zn236       O252   2.025       .  S
Zn237       O240   1.968   1_556  S
Zn237       O242   2.155       .  S
Zn237       O244   2.042       .  S
Zn237       O248   2.047       .  S
Zn238       O240   1.932   1_556  S
Zn238       O243   1.911       .  S
Zn238       O246   1.867       .  S
Zn238       O249   1.889       .  S
Zn239       O240   1.982       .  S
Zn239       O247   2.177       .  S
Zn239       O250   2.084       .  S
Zn239       O251   2.092       .  S
O241        C253   1.283       .  A
O242        C254   1.293       .  A
O243        C255   1.254   1_556  A
O244        C253   1.279   1_556  A
O245        C255   1.285       .  A
O246        C254   1.250       .  A
O247        C256   1.296       .  A
O248        C257   1.279   1_556  A
O249        C256   1.257   1_556  A
O250        C257   1.285       .  A
O251        C258   1.286       .  A
O252        C258   1.275       .  A
C258        C259   1.556       .  S
C259        C440   1.504       .  S
C260        C420   1.524       .  S
C260        C430   1.531       .  S
C260        C443   1.521       .  S
C260        C453   1.522       .  S
C261        C283   1.556       .  S
C261        C423   1.508       .  S
Zn262       O266   1.931   1_565  S
Zn262       O267   1.896       .  S
Zn262       O271   1.917       .  S
Zn262       O278   1.885       .  S
Zn263       O266   1.980       .  S
Zn263       O268   2.060       .  S
Zn263       O270   2.170       .  S
Zn263       O274   2.056       .  S
Zn264       O266   1.976   1_565  S
Zn264       O269   2.126       .  S
Zn264       O272   2.041       .  S
Zn264       O275   2.060       .  S
Zn265       O266   1.993       .  S
Zn265       O273   2.077       .  S
Zn265       O276   2.081       .  S
Zn265       O277   2.189       .  S
O267        C279   1.257   1_565  A
O268        C280   1.280       .  A
O269        C281   1.288       .  A
O270        C279   1.294       .  A
O271        C281   1.258       .  A
O272        C280   1.276   1_565  A
O273        C282   1.284       .  A
O274        C283   1.282       .  A
O275        C282   1.282   1_565  A
O276        C283   1.285       .  A
O277        C284   1.296       .  A
O278        C284   1.252   1_565  A
C284        C285   1.549   1_545  S
C285        C378   1.564   1_565  S
C285        C410   1.503   1_565  S
C286        C307   1.569       .  S
C286        C405   1.548       .  S
C286        C573   1.497   1_655  S
Zn287       O291   1.988       .  S
Zn287       O292   2.094       .  S
Zn287       O296   2.202       .  S
Zn287       O303   2.103       .  S
Zn288       O291   1.984   1_455  S
Zn288       O293   2.152       .  S
Zn288       O295   2.089       .  S
Zn288       O299   2.069       .  S
Zn289       O291   1.939       .  S
Zn289       O294   1.886       .  S
Zn289       O297   1.898       .  S
Zn289       O300   1.920       .  S
Zn290       O291   1.998   1_455  S
Zn290       O298   2.145       .  S
Zn290       O301   2.090       .  S
Zn290       O302   2.059       .  S
O292        C304   1.286       .  A
O293        C305   1.292   1_455  A
O294        C306   1.254       .  A
O295        C304   1.284   1_455  A
O296        C306   1.298       .  A
O297        C305   1.254       .  A
O298        C307   1.290   1_455  A
O299        C308   1.283       .  A
O300        C307   1.258       .  A
O301        C308   1.284       .  A
O302        C309   1.280   1_455  A
O303        C309   1.289       .  A
C305        C310   1.556       .  S
C310        C400   1.560       .  S
C310        C613   1.491       .  S
C311        C329   1.561       .  S
C311        C355   1.559       .  S
C311        C380   1.547       .  S
C311        C523   1.502   1_554  S
Zn312       O316   1.978   1_465  S
Zn312       O317   2.070       .  S
Zn312       O321   2.164       .  S
Zn312       O328   2.071       .  S
Zn313       O316   1.983   1_456  S
Zn313       O318   2.146       .  S
Zn313       O320   2.042       .  S
Zn313       O324   2.052       .  S
Zn314       O316   1.924   1_566  S
Zn314       O319   1.884       .  S
Zn314       O322   1.901       .  S
Zn314       O325   1.898       .  S
Zn315       O316   1.985       .  S
Zn315       O323   2.152       .  S
Zn315       O326   2.055       .  S
Zn315       O327   2.075       .  S
O317        C329   1.284   1_565  A
O318        C330   1.292   1_455  A
O319        C331   1.253   1_556  A
O320        C329   1.279   1_556  A
O321        C331   1.294   1_455  A
O322        C330   1.255   1_565  A
O323        C332   1.292       .  A
O324        C333   1.280   1_456  A
O325        C332   1.257   1_566  A
O326        C333   1.281       .  A
O327        C334   1.283       .  A
O328        C334   1.283   1_465  A
C333        C336   1.561   1_655  S
C334        C335   1.564   1_655  S
C335        C382   1.546       .  S
C335        C401   1.556   1_455  S
C335        C463   1.508   1_455  S
C336        C358   1.575       .  S
C336        C403   1.568   1_455  S
C336        C633   1.514   1_455  S
Zn337       O341   1.928   1_556  S
Zn337       O342   1.891       .  S
Zn337       O346   1.882       .  S
Zn337       O353   1.890       .  S
Zn338       O341   1.981   1_556  S
Zn338       O343   2.067       .  S
Zn338       O345   2.197       .  S
Zn338       O349   2.081       .  S
Zn339       O341   1.979       .  S
Zn339       O344   2.176       .  S
Zn339       O347   2.058       .  S
Zn339       O350   2.070       .  S
Zn340       O341   1.990       .  S
Zn340       O348   2.073       .  S
Zn340       O351   2.055       .  S
Zn340       O352   2.129       .  S
O342        C354   1.251       .  A
O343        C355   1.283   1_556  A
O344        C356   1.296       .  A
O345        C354   1.297       .  A
O346        C356   1.254   1_556  A
O347        C355   1.282       .  A
O348        C357   1.282       .  A
O349        C358   1.285   1_556  A
O350        C357   1.281       .  A
O351        C358   1.280       .  A
O352        C359   1.289       .  A
O353        C359   1.256   1_556  A
C357        C406   1.564       .  S
Zn360       O364   1.994   1_565  S
Zn360       O365   2.066       .  S
Zn360       O369   2.081       .  S
Zn360       O376   2.170       .  S
Zn361       O364   1.988       .  S
Zn361       O366   2.081       .  S
Zn361       O368   2.080       .  S
Zn361       O372   2.190       .  S
Zn362       O364   2.002   1_565  S
Zn362       O367   2.082       .  S
Zn362       O370   2.071       .  S
Zn362       O373   2.175       .  S
Zn363       O364   1.937       .  S
Zn363       O371   1.901       .  S
Zn363       O374   1.896       .  S
Zn363       O375   1.898       .  S
O365        C377   1.281   1_565  A
O366        C378   1.286       .  A
O367        C379   1.284       .  A
O368        C377   1.284       .  A
O369        C379   1.284       .  A
O370        C378   1.282   1_565  A
O371        C380   1.255       .  A
O372        C381   1.296       .  A
O373        C380   1.293   1_565  A
O374        C381   1.254       .  A
O375        C382   1.256       .  A
O376        C382   1.294   1_565  A
C381        C406   1.551       .  S
Zn383       O387   1.919       .  S
Zn383       O388   1.904       .  S
Zn383       O392   1.896       .  S
Zn383       O399   1.904       .  S
Zn384       O387   1.985   1_455  S
Zn384       O389   2.090       .  S
Zn384       O391   2.192       .  S
Zn384       O395   2.081       .  S
Zn385       O387   1.972       .  S
Zn385       O390   2.154       .  S
Zn385       O393   2.013       .  S
Zn385       O396   2.041       .  S
Zn386       O387   1.988   1_455  S
Zn386       O394   2.048       .  S
Zn386       O397   2.031       .  S
Zn386       O398   2.149       .  S
O388        C400   1.256       .  A
O389        C401   1.287   1_455  A
O390        C402   1.292       .  A
O391        C400   1.297   1_455  A
O392        C402   1.255       .  A
O393        C401   1.275       .  A
O394        C403   1.279   1_455  A
O395        C404   1.285       .  A
O396        C403   1.279       .  A
O397        C404   1.278       .  A
O398        C405   1.290   1_455  A
O399        C405   1.258       .  A
C404        C406   1.563       .  S
C406        C433   1.506       .  S
C407        C413   1.525       .  S
C407        C503   1.530       .  S
C407        C673   1.517       .  S
C407        C723   1.516       .  S
C408        C510   1.517       .  S
C408        C563   1.516       .  S
C408        C683   1.518       .  S
C408        C713   1.515       .  S
C409        C410   1.406       .  A
C409        C414   1.381       .  A
C409        H416   1.083       .  S
C410        C411   1.413       .  A
C411        C412   1.367       .  A
C411        F418   1.355   1_545  S
C412        C413   1.403       .  A
C412        H417   1.080       .  S
C413        C414   1.409       .  A
C414        F415   1.359       .  S
C419        C420   1.401       .  A
C419        C424   1.373       .  A
C419        H426   1.080       .  S
C420        C421   1.412       .  A
C421        C422   1.382       .  A
C421        F428   1.356       .  S
C422        C423   1.403       .  A
C422        H427   1.084       .  S
C423        C424   1.416       .  A
C424        F425   1.356       .  S
C429        C430   1.411       .  A
C429        C434   1.381       .  A
C429        H436   1.083       .  S
C430        C431   1.410       .  A
C431        C432   1.376       .  A
C431        F438   1.357       .  S
C432        C433   1.409       .  A
C432        H437   1.079       .  S
C433        C434   1.404       .  A
C434        F435   1.358       .  S
C439        C440   1.408       .  A
C439        C444   1.375       .  A
C439        H446   1.079       .  S
C440        C441   1.405       .  A
C441        C442   1.378       .  A
C441        F448   1.357       .  S
C442        C443   1.410       .  A
C442        H447   1.083       .  S
C443        C444   1.409       .  A
C444        F445   1.357       .  S
C449        C450   1.408       .  A
C449        C454   1.373       .  A
C449        H456   1.080       .  S
C450        C451   1.407       .  A
C451        C452   1.381       .  A
C451        F458   1.357       .  S
C452        C453   1.409       .  A
C452        H457   1.083       .  S
C453        C454   1.409       .  A
C454        F455   1.357       .  S
C459        C460   1.404       .  A
C459        C464   1.375   1_565  A
C459        H466   1.080   1_565  S
C460        C461   1.412       .  A
C461        C462   1.382       .  A
C461        F468   1.357       .  S
C462        C463   1.403   1_565  A
C462        H467   1.083   1_655  S
C463        C464   1.415       .  A
C464        F465   1.356       .  S
C469        C470   1.401       .  A
C469        C474   1.372       .  A
C469        H476   1.080       .  S
C470        C471   1.412       .  A
C471        C472   1.382       .  A
C471        F478   1.358       .  S
C472        C473   1.405       .  A
C472        H477   1.082       .  S
C473        C474   1.416       .  A
C474        F475   1.356   1_655  S
C479        C480   1.403       .  A
C479        C484   1.379       .  A
C479        H486   1.080       .  S
C480        C481   1.414       .  A
C481        C482   1.380       .  A
C481        F488   1.357       .  S
C482        C483   1.402       .  A
C482        H487   1.083   1_565  S
C483        C484   1.418       .  A
C484        F485   1.356       .  S
C489        C490   1.410       .  A
C489        C494   1.380       .  A
C489        H496   1.083       .  S
C490        C491   1.412       .  A
C491        C492   1.376       .  A
C491        F498   1.357       .  S
C492        C493   1.407       .  A
C492        H497   1.080       .  S
C493        C494   1.405       .  A
C494        F495   1.357       .  S
C499        C500   1.396       .  A
C499        C504   1.373       .  A
C499        H506   1.084       .  S
C500        C501   1.416       .  A
C501        C502   1.373       .  A
C501        F508   1.356       .  S
C502        C503   1.402       .  A
C502        H507   1.079       .  S
C503        C504   1.418       .  A
C504        F505   1.356       .  S
C509        C510   1.410       .  A
C509        C514   1.371       .  A
C509        H516   1.080       .  S
C510        C511   1.409       .  A
C511        C512   1.372       .  A
C511        F518   1.357       .  S
C512        C513   1.406       .  A
C512        H517   1.080       .  S
C513        C514   1.401       .  A
C514        F515   1.359       .  S
C519        C520   1.408       .  A
C519        C524   1.379   1_565  A
C519        H526   1.084       .  S
C520        C521   1.416       .  A
C521        C522   1.376       .  A
C521        F528   1.357       .  S
C522        C523   1.405   1_565  A
C522        H527   1.081       .  S
C523        C524   1.406       .  A
C524        F525   1.357   1_556  S
C529        C530   1.404       .  A
C529        C534   1.372   1_556  A
C529        H536   1.068   1_556  S
C530        C531   1.421       .  A
C531        C532   1.378       .  A
C531        F538   1.355       .  S
C532        C533   1.399       .  A
C532        H537   1.082       .  S
C533        C534   1.406   1_556  A
C534        F535   1.358       .  S
C539        C540   1.409       .  A
C539        C544   1.378   1_565  A
C539        H546   1.083       .  S
C540        C541   1.411       .  A
C541        C542   1.371       .  A
C541        F548   1.356       .  S
C542        C543   1.406   1_565  A
C542        H547   1.080       .  S
C543        C544   1.407       .  A
C544        F545   1.357       .  S
C549        C550   1.411       .  A
C549        C554   1.382       .  A
C549        H556   1.084       .  S
C550        C551   1.411       .  A
C551        C552   1.368       .  A
C551        F558   1.357       .  S
C552        C553   1.405       .  A
C552        H557   1.080       .  S
C553        C554   1.405       .  A
C554        F555   1.358       .  S
C559        C560   1.403       .  A
C559        C564   1.372       .  A
C559        H566   1.079       .  S
C560        C561   1.405       .  A
C561        C562   1.374       .  A
C561        F568   1.358       .  S
C562        C563   1.409       .  A
C562        H567   1.082       .  S
C563        C564   1.411       .  A
C564        F565   1.358       .  S
C569        C570   1.411       .  A
C569        C574   1.377   1_455  A
C569        H576   1.083       .  S
C570        C571   1.409       .  A
C571        C572   1.369       .  A
C571        F578   1.357       .  S
C572        C573   1.402       .  A
C572        H577   1.080       .  S
C573        C574   1.404   1_455  A
C574        F575   1.358       .  S
C579        C580   1.408       .  A
C579        C584   1.372       .  A
C579        H586   1.079       .  S
C580        C581   1.408       .  A
C581        C582   1.373       .  A
C581        F588   1.357       .  S
C582        C583   1.409       .  A
C582        H587   1.080       .  S
C583        C584   1.402       .  A
C584        F585   1.358       .  S
C589        C590   1.404       .  A
C589        C594   1.371       .  A
C589        H596   1.081       .  S
C590        C591   1.412       .  A
C591        C592   1.373       .  A
C591        F598   1.353       .  S
C592        C593   1.400       .  A
C592        H597   1.084       .  S
C593        C594   1.410       .  A
C594        F595   1.356   1_554  S
C599        C600   1.403   1_655  A
C599        C604   1.374   1_655  A
C599        H606   1.079       .  S
C600        C601   1.409       .  A
C601        C602   1.376       .  A
C601        F608   1.355   1_554  S
C602        C603   1.405       .  A
C602        H607   1.083       .  S
C603        C604   1.410       .  A
C604        F605   1.357   1_455  S
C609        C610   1.412       .  A
C609        C614   1.371   1_455  A
C609        H616   1.065       .  S
C610        C611   1.422       .  A
C611        C612   1.374       .  A
C611        F618   1.358       .  S
C612        C613   1.400   1_455  A
C612        H617   1.080   1_455  S
C613        C614   1.397       .  A
C614        F615   1.359       .  S
C619        C620   1.396       .  A
C619        C624   1.372       .  A
C619        H626   1.081   1_545  S
C620        C621   1.402       .  A
C621        C622   1.378       .  A
C621        F628   1.358       .  S
C622        C623   1.413       .  A
C622        H627   1.073       .  S
C623        C624   1.424       .  A
C624        F625   1.360       .  S
C629        C630   1.409       .  A
C629        C634   1.378       .  A
C629        H636   1.080       .  S
C630        C631   1.407       .  A
C631        C632   1.379   1_556  A
C631        F638   1.357   1_556  S
C632        C633   1.413       .  A
C632        H637   1.079       .  S
C633        C634   1.406   1_554  A
C634        F635   1.355   1_655  S
C639        C640   1.407       .  A
C639        C644   1.384       .  A
C639        H646   1.081       .  S
C640        C641   1.411       .  A
C641        C642   1.379   1_556  A
C641        F648   1.353       .  S
C642        C643   1.404   1_554  A
C642        H647   1.082       .  S
C643        C644   1.415       .  A
C644        F645   1.355       .  S
C649        C650   1.409       .  A
C649        C654   1.384       .  A
C649        H656   1.083       .  S
C650        C651   1.411       .  A
C651        C652   1.378       .  A
C651        F658   1.356       .  S
C652        C653   1.405       .  A
C652        H657   1.080   1_655  S
C653        C654   1.408       .  A
C654        F655   1.355       .  S
C659        C660   1.410       .  A
C659        C664   1.380       .  A
C659        H666   1.081       .  S
C660        C661   1.411       .  A
C661        C662   1.384       .  A
C661        F668   1.356       .  S
C662        C663   1.406       .  A
C662        H667   1.083       .  S
C663        C664   1.405       .  A
C664        F665   1.357       .  S
C669        C670   1.401       .  A
C669        C674   1.379       .  A
C669        H676   1.083       .  S
C670        C671   1.401       .  A
C671        C672   1.365       .  A
C671        F678   1.358       .  S
C672        C673   1.400       .  A
C672        H677   1.074       .  S
C673        C674   1.418       .  A
C674        F675   1.356       .  S
C679        C680   1.403       .  A
C679        C684   1.379       .  A
C679        H686   1.082       .  S
C680        C681   1.416       .  A
C681        C682   1.371       .  A
C681        F688   1.356       .  S
C682        C683   1.401       .  A
C682        H687   1.081       .  S
C683        C684   1.411       .  A
C684        F685   1.357       .  S
C689        C690   1.407       .  A
C689        C694   1.374       .  A
C689        H696   1.082       .  S
C690        C691   1.416       .  A
C691        C692   1.378       .  A
C691        F698   1.350       .  S
C692        C693   1.399       .  A
C692        H697   1.083       .  S
C693        C694   1.411       .  A
C694        F695   1.355       .  S
C699        C700   1.396   1_655  A
C699        C704   1.371   1_655  A
C699        H706   1.084       .  S
C700        C701   1.409       .  A
C701        C702   1.371       .  A
C701        F708   1.356   1_545  S
C702        C703   1.407       .  A
C702        H707   1.082       .  S
C703        C704   1.413       .  A
C704        F705   1.344       .  S
C709        C710   1.402       .  A
C709        C714   1.375       .  A
C709        H716   1.084       .  S
C710        C711   1.414       .  A
C711        C712   1.372       .  A
C711        F718   1.356       .  S
C712        C713   1.403       .  A
C712        H717   1.080       .  S
C713        C714   1.410       .  A
C714        F715   1.357       .  S
C719        C720   1.400       .  A
C719        C724   1.366       .  A
C719        H726   1.076   1_554  S
C720        C721   1.403       .  A
C721        C722   1.375       .  A
C721        F728   1.358   1_545  S
C722        C723   1.411       .  A
C722        H727   1.084       .  S
C723        C724   1.411       .  A
C724        F725   1.357       .  S
