geometry optimzed in LAMMPS
_audit_creation_date              2020-12-01 
_audit_creation_method            'lammps2cif' 
_symmetry_space_group_name_H-M    'P1' 
_symmetry_Int_Tables_number       1 
_symmetry_cell_setting            triclinic 
loop_ 
_symmetry_equiv_pos_as_xyz 
  x,y,z 
_cell_length_a                    45.84987592 
_cell_length_b                    45.92453841462326 
_cell_length_c                    43.845737747094915 
_cell_angle_alpha                 90.03907480065475 
_cell_angle_beta                  89.98394529861051 
_cell_angle_gamma                 120.06972170943128 
loop_ 
_atom_site_label 
_atom_site_type_symbol 
_atom_site_fract_x 
_atom_site_fract_y 
_atom_site_fract_z 
_atom_site_charge 
C1          C  0.50910877  0.01007838  0.98685919     0.04200
S2          S  0.48249752  0.02467381  0.97113741    -0.09800
C3          C  0.51383562  0.05105482  0.94409563    -0.01000
C4          C  0.54315650  0.05109336  0.94323229    -0.01000
S5          S  0.54954041  0.02478100  0.96927348    -0.09800
C6          C  0.49382323  0.94778133  0.05376789    -0.01000
C7          C  0.46439908  0.94756252  0.05407060    -0.01000
S8          S  0.45825911  0.97379091  0.02782577    -0.09800
C9          C  0.49901513  0.98887975  0.01085590     0.04200
S10         S  0.52565193  0.97461123  0.02716506    -0.09800
O11         O  0.48057299  0.77053454  0.21770264    -0.72300
O12         O  0.47481705  0.70792866  0.28411359    -0.73200
O13         O  0.47923982  0.77165364  0.28215135    -0.61900
O14         O  0.47566792  0.70637912  0.21978659    -0.70300
O15         O  0.53159642  0.73243349  0.21949087    -0.69800
O16         O  0.53491638  0.79616224  0.28441140    -0.61100
O17         O  0.53040780  0.73190068  0.28443493    -0.73600
O18         O  0.53629837  0.79650217  0.21948484    -0.72400
Cu19       Cu  0.47568968  0.73829500  0.25092757     1.04600
Cu20       Cu  0.53529833  0.76511783  0.25201688     1.04300
C21         C  0.50930984  0.79373103  0.20827122     0.93900
C22         C  0.50158517  0.70949039  0.29445680     0.93100
C23         C  0.50737583  0.79426535  0.29306030     0.85200
C24         C  0.50307684  0.70932307  0.20957120     0.91500
O25         O  0.52065811  0.29075989  0.78317246    -0.72300
O26         O  0.52237843  0.22977872  0.71951119    -0.73200
O27         O  0.51990492  0.29028067  0.71874266    -0.61900
O28         O  0.52245084  0.23010800  0.78391864    -0.70300
O29         O  0.46657202  0.20145912  0.78512516    -0.69800
O30         O  0.46410525  0.26041805  0.71911544    -0.61100
O31         O  0.46671039  0.19952872  0.72017648    -0.73600
O32         O  0.46490915  0.26247066  0.78372068    -0.72400
Cu33       Cu  0.52322620  0.26120129  0.75130875     1.04600
Cu34       Cu  0.46357667  0.22988370  0.75199801     1.04300
C35         C  0.49288815  0.28687366  0.79334648     0.93900
C36         C  0.49509660  0.20469024  0.70994950     0.93100
C37         C  0.49142046  0.28514367  0.70900909     0.85200
C38         C  0.49491108  0.20648472  0.79499124     0.91500
O39         O  0.79725361  0.26778814  0.71582922    -0.72300
O40         O  0.73259560  0.20310277  0.77663390    -0.73200
O41         O  0.73569591  0.20612061  0.71222907    -0.61900
O42         O  0.79401687  0.26524219  0.78009733    -0.70300
O43         O  0.76594136  0.29280673  0.77968633    -0.69800
O44         O  0.70755765  0.23367144  0.71243611    -0.61100
O45         O  0.70436353  0.23059755  0.77689202    -0.73600
O46         O  0.76929740  0.29540575  0.71512921    -0.72400
Cu47       Cu  0.76584447  0.23460896  0.74622752     1.04600
Cu48       Cu  0.73579387  0.26408182  0.74604007     1.04300
C49         C  0.79371847  0.29181741  0.70565852     0.93900
C50         C  0.70808438  0.20628154  0.78625736     0.93100
C51         C  0.71234724  0.21066061  0.70151070     0.85200
C52         C  0.78952514  0.28876491  0.79040207     0.91500
O53         O  0.22903056  0.70753720  0.27862270    -0.72300
O54         O  0.29471044  0.76765098  0.21527905    -0.73200
O55         O  0.29212292  0.76832866  0.27967832    -0.61900
O56         O  0.23190252  0.70705044  0.21415817    -0.70300
O57         O  0.20507860  0.73579771  0.21168633    -0.69800
O58         O  0.26583512  0.79753024  0.27738071    -0.61100
O59         O  0.26768891  0.79636028  0.21264448    -0.73600
O60         O  0.20246653  0.73659803  0.27636422    -0.72400
Cu61       Cu  0.26282599  0.73662412  0.24706625     1.04600
Cu62       Cu  0.23434740  0.76760936  0.24451418     1.04300
C63         C  0.20507478  0.71223512  0.28727857     0.93900
C64         C  0.29125329  0.79125590  0.20368771     0.93100
C65         C  0.28891750  0.79302275  0.28876302     0.85200
C66         C  0.20925012  0.71179393  0.20220354     0.91500
C67         C  0.01900135  0.50649210  0.00283987     0.04200
S68         S  0.03428434  0.54812042  0.01776115    -0.09800
C69         C  0.05875545  0.54254634  0.04650521    -0.01000
C70         C  0.05962590  0.51366272  0.04698664    -0.01000
S71         S  0.03572343  0.48203794  0.01915058    -0.09800
C72         C  0.94996160  0.45476546  0.94207430    -0.01000
C73         C  0.95030155  0.48421784  0.94016362    -0.01000
S74         S  0.97952320  0.51857769  0.96348406    -0.09800
C75         C  0.99569831  0.49393054  0.98048177     0.04200
S76         S  0.97927939  0.45167010  0.96677599    -0.09800
C77         C  0.01468422  0.51345310  0.49008440     0.04200
S78         S  0.03521175  0.49095909  0.47757219    -0.09800
C79         C  0.05875712  0.52157094  0.44892388    -0.01000
C80         C  0.05399242  0.54808717  0.44556549    -0.01000
S81         S  0.02645267  0.55271471  0.47156004    -0.09800
C82         C  0.94545773  0.49154630  0.55217811    -0.01000
C83         C  0.94918836  0.46433798  0.55447723    -0.01000
S84         S  0.97947250  0.46176952  0.53055260    -0.09800
C85         C  0.99130447  0.50122391  0.51240684     0.04200
S86         S  0.97070946  0.52359898  0.52516742    -0.09800
O87         O  0.20511294  0.47319420  0.21797230    -0.72300
O88         O  0.26654588  0.47583013  0.28431508    -0.73200
O89         O  0.20385975  0.47350634  0.28287806    -0.61900
O90         O  0.26790355  0.47552355  0.21954573    -0.70300
O91         O  0.29445045  0.53118573  0.21939350    -0.69800
O92         O  0.23005593  0.52930879  0.28209635    -0.61100
O93         O  0.29273249  0.53138200  0.28404366    -0.73600
O94         O  0.23167271  0.52898085  0.21768708    -0.72400
Cu95       Cu  0.23492365  0.47255890  0.25116862     1.04600
Cu96       Cu  0.26315267  0.53213845  0.25079333     1.04300
C97         C  0.20884065  0.50069340  0.20720746     0.93900
C98         C  0.28932876  0.50409806  0.29494493     0.93100
C99         C  0.20707651  0.50116855  0.29265484     0.85200
C100        C  0.29122573  0.50367236  0.20923760     0.91500
O101        O  0.76575856  0.46870683  0.78131696    -0.72300
O102        O  0.70131592  0.46787506  0.71880376    -0.73200
O103        O  0.76462416  0.46984633  0.71702614    -0.61900
O104        O  0.70300240  0.46693361  0.78354370    -0.70300
O105        O  0.73023831  0.52251383  0.78488161    -0.69800
O106        O  0.79060691  0.52567574  0.71689482    -0.61100
O107        O  0.72785502  0.52364052  0.71995319    -0.73600
O108        O  0.79326897  0.52450316  0.78127359    -0.72400
Cu109      Cu  0.73267429  0.46640102  0.75012099     1.04600
Cu110      Cu  0.76133863  0.52602012  0.75080201     1.04300
C111        C  0.79016807  0.49674397  0.79061539     0.93900
C112        C  0.70454106  0.49567035  0.70936429     0.93100
C113        C  0.78765254  0.49821674  0.70685259     0.85200
C114        C  0.70701811  0.49421756  0.79511009     0.91500
C115        C  0.49128767  0.50433243  0.01155298     0.04200
S116        S  0.44989299  0.47920478  0.02748218    -0.09800
C117        C  0.45644360  0.51109321  0.05446174    -0.01000
C118        C  0.48531971  0.54096735  0.05344690    -0.01000
S119        S  0.51626116  0.54670423  0.02542171    -0.09800
C120        C  0.53911303  0.48300265  0.94961745    -0.01000
C121        C  0.50925657  0.45425029  0.94954864    -0.01000
S122        S  0.47726059  0.44982795  0.97556251    -0.09800
C123        C  0.50301209  0.49179843  0.99004205     0.04200
S124        S  0.54496494  0.51613803  0.97491674    -0.09800
C125        C  0.48770209  0.50543425  0.49485850     0.04200
S126        S  0.44634996  0.48045868  0.47867854    -0.09800
C127        C  0.45298367  0.51267164  0.45201343    -0.01000
C128        C  0.48285800  0.54137612  0.45173872    -0.01000
S129        S  0.51468471  0.54612099  0.47820695    -0.09800
C130        C  0.53321303  0.48569339  0.56023779    -0.01000
C131        C  0.50261099  0.45770581  0.56145298    -0.01000
S132        S  0.47077261  0.45353605  0.53529869    -0.09800
C133        C  0.49803744  0.49400444  0.51847040     0.04200
S134        S  0.53957764  0.51853306  0.53438488    -0.09800
C135        C  0.50595974  0.01450797  0.50698584     0.04200
S136        S  0.54644499  0.02904732  0.52416957    -0.09800
C137        C  0.54132934  0.05670648  0.54938522    -0.01000
C138        C  0.51228703  0.05730467  0.54871572    -0.01000
S139        S  0.48104106  0.03191159  0.52097068    -0.09800
C140        C  0.45937176  0.94667544  0.44362510    -0.01000
C141        C  0.48811904  0.94556432  0.44609081    -0.01000
S142        S  0.52002916  0.97371720  0.47177303    -0.09800
C143        C  0.49487099  0.99120985  0.48466002     0.04200
S144        S  0.45466912  0.97637439  0.46670566    -0.09800
C145        C  0.68450098  0.49342832  0.82005894    -0.11300
C146        C  0.66144360  0.46347566  0.83559993     0.04200
C147        C  0.63968118  0.46426376  0.85757154    -0.11800
C148        C  0.64046886  0.49431633  0.86485315     0.19000
C149        C  0.66422206  0.52433210  0.85061766    -0.08900
C150        C  0.68579871  0.52371084  0.82839855    -0.01800
H151        H  0.62168730  0.44114789  0.86885569     0.05600
C152        C  0.61552252  0.49352515  0.88665704     0.21000
H153        H  0.70342470  0.54712994  0.81737869     0.10700
C154        C  0.61933360  0.48986233  0.91791937    -0.15200
C155        C  0.59513782  0.48739504  0.93886488     0.03700
C156        C  0.56665858  0.48852999  0.92851753    -0.10500
C157        C  0.56302662  0.49246846  0.89728698    -0.00500
C158        C  0.58707958  0.49476154  0.87636028    -0.05700
H159        H  0.64091591  0.48841625  0.92595017     0.06700
H160        H  0.54095625  0.49291107  0.88911884     0.10100
Br161      Br  0.66811468  0.56673795  0.86099609    -0.05400
Br162      Br  0.65821722  0.42056562  0.82907522    -0.02400
Br163      Br  0.60086017  0.48038238  0.98104556     0.00500
Br164      Br  0.57920421  0.49777576  0.83381428    -0.03900
C165        C  0.68085998  0.49538551  0.68631869    -0.11300
C166        C  0.69177625  0.51905176  0.66230396     0.04200
C167        C  0.66839794  0.51826429  0.64131669    -0.11800
C168        C  0.63412113  0.49428123  0.64384832     0.19000
C169        C  0.62315143  0.47056248  0.66762653    -0.08900
C170        C  0.64650578  0.47106519  0.68847780    -0.01800
H171        H  0.67698941  0.53633993  0.62283167     0.05600
C172        C  0.61015596  0.49412065  0.62130259     0.21000
H173        H  0.63768235  0.45281688  0.70682735     0.10700
C174        C  0.60089961  0.47237637  0.59618645    -0.15200
C175        C  0.57718717  0.47063915  0.57511185     0.03700
C176        C  0.56179180  0.49027419  0.57951215    -0.10500
C177        C  0.57264388  0.51352346  0.60356621    -0.00500
C178        C  0.59648447  0.51537796  0.62456985    -0.05700
H179        H  0.61211676  0.45668135  0.59304022     0.06700
H180        H  0.56155737  0.52933487  0.60669696     0.10100
Br181      Br  0.57640665  0.43777970  0.67291887    -0.05400
Br182      Br  0.73841214  0.55165539  0.65581142    -0.02400
Br183      Br  0.56783712  0.44241935  0.53996869     0.00500
Br184      Br  0.60875788  0.54628711  0.65799674    -0.03900
C185        C  0.42939864  0.50409442  0.07663099    -0.11300
C186        C  0.43362938  0.50069669  0.10796021     0.04200
C187        C  0.41022921  0.49983544  0.12884288    -0.11800
C188        C  0.38204357  0.50151332  0.11887921     0.19000
C189        C  0.37697886  0.50328549  0.08738961    -0.08900
C190        C  0.40052366  0.50432130  0.06651021    -0.01800
H191        H  0.41414551  0.49811322  0.15298064     0.05600
C192        C  0.35854896  0.50181973  0.14174350     0.21000
H193        H  0.39706944  0.50678649  0.04240581     0.10700
C194        C  0.35536894  0.53049426  0.14465156    -0.15200
C195        C  0.33340537  0.53172872  0.16607706     0.03700
C196        C  0.31467563  0.50400756  0.18574306    -0.10500
C197        C  0.31812464  0.47537988  0.18268978    -0.00500
C198        C  0.33967081  0.47407580  0.16092240    -0.05700
H199        H  0.36982104  0.55191666  0.12988690     0.06700
H200        H  0.30397382  0.45375774  0.19730477     0.10100
Br201      Br  0.33844042  0.50440035  0.07182792    -0.05400
Br202      Br  0.47059757  0.49661006  0.12316359    -0.02400
Br203      Br  0.32898997  0.57119038  0.16550427     0.00500
Br204      Br  0.34144811  0.43332182  0.15748232    -0.03900
C205        C  0.42578302  0.50677716  0.43042485    -0.11300
C206        C  0.39741402  0.50854262  0.44001467     0.04200
C207        C  0.37409710  0.50674884  0.41845681    -0.11800
C208        C  0.37866853  0.50303952  0.38738935     0.19000
C209        C  0.40666813  0.50061234  0.37786127    -0.08900
C210        C  0.42991000  0.50233420  0.39939093    -0.01800
H211        H  0.35265233  0.50881163  0.42584601     0.05600
C212        C  0.35476258  0.50306821  0.36501809     0.21000
H213        H  0.45177387  0.50112442  0.39184562     0.10700
C214        C  0.35849741  0.53380796  0.35549666    -0.15200
C215        C  0.33720985  0.53503430  0.33332661     0.03700
C216        C  0.31180140  0.50478751  0.31978160    -0.10500
C217        C  0.30781540  0.47397255  0.33022947    -0.00500
C218        C  0.32885067  0.47296855  0.35272206    -0.05700
H219        H  0.37827050  0.55704374  0.36532649     0.06700
H220        H  0.28831110  0.45035379  0.32082659     0.10100
Br221      Br  0.41481209  0.49638693  0.33560856    -0.05400
Br222      Br  0.39063792  0.51545459  0.48195705    -0.02400
Br223      Br  0.34446402  0.57899659  0.32374254     0.00500
Br224      Br  0.32131024  0.42999086  0.36616678    -0.03900
C225        C  0.08124166  0.51554627  0.42884932    -0.11300
C226        C  0.11641294  0.53748253  0.42825730     0.04200
C227        C  0.13595243  0.53303517  0.40631284    -0.11800
C228        C  0.12112807  0.50610572  0.38572403     0.19000
C229        C  0.08659188  0.48244028  0.38814052    -0.08900
C230        C  0.06687929  0.48734727  0.40957281    -0.01800
H231        H  0.16282794  0.55060430  0.40528767     0.05600
C232        C  0.14197355  0.50377644  0.36135592     0.21000
H233        H  0.04003092  0.46966853  0.41054109     0.10700
C234        C  0.15491036  0.48205162  0.36477892    -0.15200
C235        C  0.17579640  0.48038512  0.34240006     0.03700
C236        C  0.18409248  0.50091901  0.31623034    -0.10500
C237        C  0.17096939  0.52254186  0.31288579    -0.00500
C238        C  0.14981073  0.52386273  0.33506959    -0.05700
H239        H  0.14911784  0.46674286  0.38511456     0.06700
H240        H  0.17698793  0.53827487  0.29281120     0.10100
Br241      Br  0.06530563  0.44376688  0.36204337    -0.05400
Br242      Br  0.13923048  0.57216449  0.45813850    -0.02400
Br243      Br  0.19423586  0.45162029  0.34988076     0.00500
Br244      Br  0.13166909  0.55297754  0.32834095    -0.03900
C245        C  0.92247232  0.49674565  0.57230245    -0.11300
C246        C  0.88722427  0.47808572  0.56865161     0.04200
C247        C  0.86630861  0.48099545  0.59019182    -0.11800
C248        C  0.88006593  0.50235644  0.61546305     0.19000
C249        C  0.91529581  0.52176531  0.61860922    -0.08900
C250        C  0.93622233  0.51912258  0.59690392    -0.01800
H251        H  0.83922337  0.46607613  0.58757233     0.05600
C252        C  0.85721097  0.50266686  0.63904620     0.21000
H253        H  0.96329745  0.53357424  0.59986281     0.10700
C254        C  0.85315359  0.48515748  0.66635265    -0.15200
C255        C  0.83017264  0.48302675  0.68846283     0.03700
C256        C  0.81148607  0.49937821  0.68371464    -0.10500
C257        C  0.81641768  0.51789249  0.65683982    -0.00500
C258        C  0.83879413  0.51924558  0.63437234    -0.05700
H259        H  0.86768456  0.47299610  0.67033325     0.06700
H260        H  0.80250089  0.53081585  0.65313824     0.10100
Br261      Br  0.93578272  0.55170339  0.65243118    -0.05400
Br262      Br  0.86656705  0.44851754  0.53466262    -0.02400
Br263      Br  0.82649888  0.45880376  0.72529716     0.00500
Br264      Br  0.84393778  0.54445090  0.59793809    -0.03900
C265        C  0.08126890  0.50803114  0.06847332    -0.11300
C266        C  0.06745332  0.48232442  0.09061486     0.04200
C267        C  0.08851816  0.48002057  0.11235708    -0.11800
C268        C  0.12327840  0.50272706  0.11207275     0.19000
C269        C  0.13732687  0.52706089  0.08889712    -0.08900
C270        C  0.11632714  0.52953168  0.06729803    -0.01800
H271        H  0.07768182  0.46099824  0.12999597     0.05600
C272        C  0.14439067  0.50161971  0.13680502     0.21000
H273        H  0.12732569  0.54867441  0.04978748     0.10700
C274        C  0.15419317  0.47723796  0.13614338    -0.15200
C275        C  0.17512519  0.47631882  0.15888024     0.03700
C276        C  0.18638198  0.50010779  0.18283510    -0.10500
C277        C  0.17627798  0.52436176  0.18341505    -0.00500
C278        C  0.15525687  0.52510093  0.16077969    -0.05700
H279        H  0.14601930  0.45927934  0.11757164     0.06700
H280        H  0.18447207  0.54261815  0.20174195     0.10100
Br281      Br  0.18496283  0.55756611  0.08615502    -0.05400
Br282      Br  0.02000800  0.45083913  0.09325144    -0.02400
Br283      Br  0.18933250  0.44365373  0.15463881     0.00500
Br284      Br  0.14156030  0.55826103  0.16367484    -0.03900
C285        C  0.81483257  0.49679565  0.81233104    -0.11300
C286        C  0.84959131  0.52063108  0.81052199     0.04200
C287        C  0.87197421  0.51948508  0.83151699    -0.11800
C288        C  0.86047041  0.49454517  0.85410473     0.19000
C289        C  0.82593346  0.47040870  0.85558937    -0.08900
C290        C  0.80347381  0.47169170  0.83482480    -0.01800
H291        H  0.89859216  0.53785158  0.82996636     0.05600
C292        C  0.88484295  0.49379812  0.87570552     0.21000
H293        H  0.77696766  0.45294144  0.83627544     0.10700
C294        C  0.88281892  0.49991555  0.90677819    -0.15200
C295        C  0.90428158  0.49758141  0.92807353     0.03700
C296        C  0.92872551  0.48960746  0.91822344    -0.10500
C297        C  0.93181885  0.48526335  0.88690547    -0.00500
C298        C  0.90968439  0.48650634  0.86578831    -0.05700
H299        H  0.86385985  0.50571368  0.91456884     0.06700
H300        H  0.95102497  0.47996813  0.87889856     0.10100
Br301      Br  0.80850124  0.43435239  0.88469635    -0.05400
Br302      Br  0.86847117  0.55349839  0.77851030    -0.02400
Br303      Br  0.89767183  0.50357461  0.97031838     0.00500
Br304      Br  0.91283618  0.47562454  0.82409459    -0.03900
C305        C  0.43267797  0.92586027  0.42114961    -0.11300
C306        C  0.39944432  0.90265527  0.43032897     0.04200
C307        C  0.37589445  0.88147253  0.40870308    -0.11800
C308        C  0.38494533  0.88302934  0.37797679     0.19000
C309        C  0.41768005  0.90688614  0.36860335    -0.06500
C310        C  0.44107921  0.92835572  0.39006349    -0.01800
H311        H  0.35059307  0.86325213  0.41594696     0.05600
C312        C  0.35992630  0.85958641  0.35594767     0.21000
H313        H  0.46618895  0.94669148  0.38252357     0.10700
C314        C  0.33670754  0.86739403  0.34326149    -0.15200
C315        C  0.31317721  0.84630628  0.32156649     0.03700
C316        C  0.31250479  0.81632622  0.31234396    -0.10500
C317        C  0.33585254  0.80862794  0.32564776    -0.00500
C318        C  0.35936903  0.82992269  0.34717191    -0.05700
H319        H  0.33723294  0.89036079  0.35001897     0.06700
H320        H  0.33608761  0.78596530  0.31923504     0.10100
Br321      Br  0.43161408  0.91057544  0.32684843    -0.05400
Br322      Br  0.38522295  0.89733654  0.47213126    -0.02400
Br323      Br  0.28390345  0.86122735  0.30546551     0.00500
Br324      Br  0.39040288  0.81767026  0.36398412    -0.03900
C325        C  0.07836188  0.57044573  0.06814327    -0.11300
C326        C  0.06950411  0.56801712  0.09917751     0.04200
C327        C  0.09060732  0.59328413  0.11950593    -0.11800
C328        C  0.12034328  0.62143045  0.10928913     0.19000
C329        C  0.12848522  0.62457030  0.07803087    -0.08900
C330        C  0.10741185  0.59920016  0.05769442    -0.01800
H331        H  0.08409320  0.59072495  0.14348823     0.05600
C332        C  0.14350063  0.64595679  0.13192812     0.21000
H333        H  0.11423477  0.60140254  0.03380971     0.10700
C334        C  0.17447327  0.64782731  0.13737255    -0.15200
C335        C  0.19649634  0.66923582  0.15973619     0.03700
C336        C  0.18741961  0.68927056  0.17751335    -0.10500
C337        C  0.15645570  0.68762753  0.17155568    -0.00500
C338        C  0.13455794  0.66617344  0.14909822    -0.05700
H339        H  0.18144718  0.63224348  0.12420806     0.06700
H340        H  0.14893436  0.70278497  0.18468064     0.10100
Br341      Br  0.16804703  0.66297765  0.06216354    -0.05400
Br342      Br  0.02864562  0.53116699  0.11481174    -0.02400
Br343      Br  0.23874564  0.67021739  0.16351847     0.00500
Br344      Br  0.09298999  0.66572219  0.14232512    -0.03900
C345        C  0.18065200  0.68935927  0.31029743    -0.11300
C346        C  0.14698346  0.68264438  0.31183027     0.04200
C347        C  0.12513216  0.66067223  0.33408316    -0.11800
C348        C  0.13610263  0.64511582  0.35495361     0.19000
C349        C  0.16930632  0.65110909  0.35303587    -0.08900
C350        C  0.19121533  0.67310674  0.33096433    -0.01800
H351        H  0.09938272  0.65557917  0.33506723     0.05600
C352        C  0.11242437  0.62199152  0.37809122     0.21000
H353        H  0.21673518  0.67754310  0.33003714     0.10700
C354        C  0.08564598  0.59068943  0.36889794    -0.15200
C355        C  0.06493866  0.56691003  0.39054964     0.03700
C356        C  0.07144958  0.57417867  0.42186071    -0.10500
C357        C  0.09610094  0.60660680  0.43089257    -0.00500
C358        C  0.11668439  0.63045123  0.40927816    -0.05700
H359        H  0.08128528  0.58452039  0.34487010     0.06700
H360        H  0.10037912  0.61288078  0.45490616     0.10100
Br361      Br  0.18562429  0.62901307  0.37940139    -0.05400
Br362      Br  0.12835820  0.70066915  0.28328701    -0.02400
Br363      Br  0.02731059  0.52560975  0.37641529     0.00500
Br364      Br  0.15049971  0.67405938  0.42333751    -0.03900
C365        C  0.56891220  0.07723328  0.57095477    -0.11300
C366        C  0.60051802  0.10275700  0.56043304     0.04200
C367        C  0.62538941  0.12312087  0.58138788    -0.11800
C368        C  0.61908189  0.11860675  0.61278097     0.19000
C369        C  0.58755411  0.09311494  0.62333004    -0.08900
C370        C  0.56295655  0.07224830  0.60242837    -0.01800
H371        H  0.64942456  0.14316923  0.57319885     0.05600
C372        C  0.64461039  0.14250473  0.63410726     0.21000
H373        H  0.53870123  0.05273510  0.61072094     0.10700
C374        C  0.64919824  0.17491436  0.63637455    -0.15200
C375        C  0.67176536  0.19795240  0.65748003     0.03700
C376        C  0.69012747  0.18840826  0.67703213    -0.10500
C377        C  0.68629568  0.15618790  0.67374815    -0.00500
C378        C  0.66379976  0.13332422  0.65246726    -0.05700
H379        H  0.63479599  0.18217653  0.62182269     0.06700
H380        H  0.70028295  0.14839081  0.68823442     0.10100
Br381      Br  0.57619486  0.08751822  0.66586710    -0.05400
Br382      Br  0.61009623  0.11262366  0.51786617    -0.02400
Br383      Br  0.67675856  0.24207716  0.65722966     0.00500
Br384      Br  0.66003279  0.08990284  0.64920645    -0.03900
C385        C  0.81816967  0.31598239  0.68320474    -0.11300
C386        C  0.84398355  0.31180474  0.66962032     0.04200
C387        C  0.86703388  0.33628741  0.64968748    -0.11800
C388        C  0.86466827  0.36463282  0.64232136     0.19000
C389        C  0.83827867  0.36816292  0.65452031    -0.08900
C390        C  0.81569166  0.34432001  0.67508064    -0.01800
H391        H  0.88677761  0.33303514  0.63955542     0.05600
C392        C  0.88883277  0.38934953  0.62052926     0.21000
H393        H  0.79587707  0.34792946  0.68447054     0.10700
C394        C  0.88626711  0.38059003  0.58963597    -0.15200
C395        C  0.90682061  0.40423183  0.56788403     0.03700
C396        C  0.93022478  0.43731061  0.57707466    -0.10500
C397        C  0.93433157  0.44528514  0.60828016    -0.00500
C398        C  0.91373374  0.42166229  0.62998217    -0.05700
H399        H  0.86748489  0.35554479  0.58233487     0.06700
H400        H  0.95310692  0.47025508  0.61570607     0.10100
Br401      Br  0.83088388  0.40400817  0.64227512    -0.05400
Br402      Br  0.84913305  0.27314289  0.67558451    -0.02400
Br403      Br  0.90035324  0.39039311  0.52594877     0.00500
Br404      Br  0.92029771  0.43468267  0.67212936    -0.03900
C405        C  0.81197488  0.31126002  0.81478235    -0.11300
C406        C  0.81573188  0.34327609  0.82107716     0.04200
C407        C  0.83841585  0.36374463  0.84352909    -0.11800
C408        C  0.85757536  0.35314406  0.85997717     0.19000
C409        C  0.85339583  0.32116420  0.85442135    -0.08900
C410        C  0.83092156  0.30063285  0.83191402    -0.01800
H411        H  0.84159197  0.38842390  0.84787793     0.05600
C412        C  0.88198232  0.37618810  0.88260100     0.21000
H413        H  0.82823372  0.27611987  0.82790916     0.10700
C414        C  0.86999099  0.38218631  0.90991242    -0.15200
C415        C  0.89214842  0.40636758  0.93052185     0.03700
C416        C  0.92676281  0.42509150  0.92369648    -0.10500
C417        C  0.93899070  0.41779124  0.89720007    -0.00500
C418        C  0.91680053  0.39388698  0.87639387    -0.05700
H419        H  0.84323868  0.36848284  0.91488232     0.06700
H420        H  0.96560729  0.43223366  0.89178789     0.10100
Br421      Br  0.87743214  0.30433661  0.87738131    -0.05400
Br422      Br  0.79239501  0.36192126  0.79943792    -0.02400
Br423      Br  0.87411521  0.41311573  0.96755462     0.00500
Br424      Br  0.93477630  0.38834557  0.83871969    -0.03900
C425        C  0.50565304  0.07847037  0.56998317    -0.11300
C426        C  0.48201578  0.06390245  0.59376044     0.04200
C427        C  0.47931823  0.08443926  0.61583387    -0.11800
C428        C  0.49967570  0.11958058  0.61447867     0.19000
C429        C  0.52281418  0.13417614  0.59025122    -0.08900
C430        C  0.52556827  0.11361984  0.56824994    -0.01800
H431        H  0.46185713  0.07290176  0.63460238     0.05600
C432        C  0.49776142  0.14044127  0.63935781     0.21000
H433        H  0.54392277  0.12503528  0.55010193     0.10700
C434        C  0.52617094  0.15934603  0.65768235    -0.15200
C435        C  0.52592905  0.18005707  0.68095083     0.03700
C436        C  0.49640924  0.18190122  0.68655003    -0.10500
C437        C  0.46759196  0.16190941  0.66878232    -0.00500
C438        C  0.46808904  0.14141801  0.64536544    -0.05700
H439        H  0.54883820  0.15803076  0.65374528     0.06700
H440        H  0.44468193  0.16277208  0.67258104     0.10100
Br441      Br  0.55120743  0.18199144  0.58613708    -0.05400
Br442      Br  0.45481217  0.01606640  0.59845360    -0.02400
Br443      Br  0.56673080  0.20393157  0.70436980     0.00500
Br444      Br  0.42805906  0.11648813  0.62135162    -0.03900
C445        C  0.49328200  0.31047700  0.81671334    -0.11300
C446        C  0.52186907  0.34275779  0.82148696     0.04200
C447        C  0.52168355  0.36328822  0.84487454    -0.11800
C448        C  0.49343026  0.35279156  0.86354802     0.19000
C449        C  0.46451538  0.32135470  0.85831874    -0.08900
C450        C  0.46465824  0.30041104  0.83516752    -0.01800
H451        H  0.54367649  0.38791424  0.84834249     0.05600
C452        C  0.49463717  0.37586310  0.88756408     0.21000
H453        H  0.44241037  0.27596583  0.83190406     0.10700
C454        C  0.47689283  0.39306680  0.88331668    -0.15200
C455        C  0.48063346  0.41803569  0.90381524     0.03700
C456        C  0.50226671  0.42588883  0.92906348    -0.10500
C457        C  0.51925472  0.40800576  0.93378757    -0.00500
C458        C  0.51578807  0.38329685  0.91314382    -0.05700
H459        H  0.46106253  0.38789425  0.86338479     0.06700
H460        H  0.53593131  0.41392532  0.95318454     0.10100
Br461      Br  0.42468534  0.30579014  0.88268846    -0.05400
Br462      Br  0.56151940  0.36184372  0.79627745    -0.02400
Br463      Br  0.45789059  0.44253954  0.89505337     0.00500
Br464      Br  0.54089693  0.36084901  0.92045072    -0.03900
C465        C  0.49014140  0.30813504  0.68608806    -0.11300
C466        C  0.46417634  0.31623751  0.68607835     0.04200
C467        C  0.46426468  0.33851527  0.66432870    -0.11800
C468        C  0.48995750  0.35334850  0.64251682     0.19000
C469        C  0.51624675  0.34584240  0.64278807    -0.08900
C470        C  0.51606001  0.32329897  0.66436576    -0.01800
H471        H  0.44446190  0.34485398  0.66478939     0.05600
C472        C  0.49012336  0.37854122  0.62139149     0.21000
H473        H  0.53644778  0.31780359  0.66429965     0.10700
C474        C  0.49302019  0.40816322  0.63352578    -0.15200
C475        C  0.49475789  0.43328769  0.61438192     0.03700
C476        C  0.49493997  0.42951107  0.58251886    -0.10500
C477        C  0.48921648  0.39880211  0.57044062    -0.00500
C478        C  0.48651616  0.37323323  0.58962740    -0.05700
H479        H  0.49402749  0.41177622  0.65800274     0.06700
H480        H  0.48777952  0.39506720  0.54597112     0.10100
Br481      Br  0.55400415  0.36719267  0.61548275    -0.05400
Br482      Br  0.42950703  0.30035701  0.71663329    -0.02400
Br483      Br  0.49458707  0.47112633  0.63273132     0.00500
Br484      Br  0.47685168  0.33127271  0.57154040    -0.03900
C485        C  0.49550650  0.92344554  0.42700821    -0.11300
C486        C  0.47761294  0.88820536  0.43035988     0.04200
C487        C  0.48264719  0.86811710  0.40948737    -0.11800
C488        C  0.50585654  0.88277162  0.38561197     0.19000
C489        C  0.52505392  0.91800823  0.38325325    -0.08900
C490        C  0.51990554  0.93809610  0.40401439    -0.01800
H491        H  0.46801214  0.84096442  0.41154130     0.05600
C492        C  0.50747595  0.86093173  0.36187305     0.21000
H493        H  0.53399769  0.96521625  0.40146224     0.10700
C494        C  0.48479683  0.85117366  0.33751483    -0.15200
C495        C  0.48477447  0.83001112  0.31463782     0.03700
C496        C  0.50782521  0.81809951  0.31600287    -0.10500
C497        C  0.53110203  0.82860318  0.34017235    -0.00500
C498        C  0.53090316  0.84972619  0.36314521    -0.05700
H499        H  0.46706910  0.86022748  0.33626545     0.06700
H500        H  0.54896424  0.81973881  0.34158710     0.10100
Br501      Br  0.55739719  0.93955146  0.35125689    -0.05400
Br502      Br  0.44663788  0.86653090  0.46325701    -0.02400
Br503      Br  0.45383215  0.81998659  0.28141970     0.00500
Br504      Br  0.56248573  0.86228853  0.39608111    -0.03900
C505        C  0.50163522  0.68572783  0.18612710    -0.11300
C506        C  0.51813563  0.69731109  0.15791141     0.04200
C507        C  0.51606478  0.67421639  0.13599278    -0.11800
C508        C  0.49772228  0.63957986  0.14182064     0.19000
C509        C  0.48111439  0.62791535  0.16996081    -0.08900
C510        C  0.48294639  0.65100173  0.19181788    -0.01800
H511        H  0.52849368  0.68325236  0.11420006     0.05600
C512        C  0.49567551  0.61600004  0.11798202     0.21000
H513        H  0.47006345  0.64187032  0.21341871     0.10700
C514        C  0.52003402  0.60611088  0.11701479    -0.15200
C515        C  0.51808081  0.58286315  0.09526419     0.03700
C516        C  0.49140349  0.56930454  0.07398142    -0.10500
C517        C  0.46825325  0.58090367  0.07398683    -0.00500
C518        C  0.46978441  0.60346988  0.09614108    -0.05700
H519        H  0.54019384  0.61596818  0.13367040     0.06700
H520        H  0.44816095  0.57143701  0.05730579     0.10100
Br521      Br  0.45572366  0.58077564  0.17929903    -0.05400
Br522      Br  0.54184765  0.74420792  0.14752626    -0.02400
Br523      Br  0.55135022  0.56922833  0.09697158     0.00500
Br524      Br  0.43521127  0.61536961  0.09658746    -0.03900
C525        C  0.49940396  0.68552110  0.31833016    -0.11300
C526        C  0.46988357  0.65400258  0.32309729     0.04200
C527        C  0.46900196  0.63273298  0.34635339    -0.11800
C528        C  0.49721936  0.64180055  0.36479152     0.19000
C529        C  0.52688893  0.67263449  0.35967811    -0.08900
C530        C  0.52774868  0.69424557  0.33676818    -0.01800
H531        H  0.44634399  0.60860754  0.34972412     0.05600
C532        C  0.49547942  0.61805847  0.38841945     0.21000
H533        H  0.55071510  0.71809638  0.33351773     0.10700
C534        C  0.51235712  0.60005332  0.38360092    -0.15200
C535        C  0.50950805  0.57582605  0.40458214     0.03700
C536        C  0.48958050  0.56942192  0.43086506    -0.10500
C537        C  0.47324216  0.58790176  0.43598351    -0.00500
C538        C  0.47593004  0.61198299  0.41493679    -0.05700
H539        H  0.52711372  0.60430495  0.36307003     0.06700
H540        H  0.45770048  0.58296826  0.45607687     0.10100
Br541      Br  0.56664266  0.68642516  0.38374149    -0.05400
Br542      Br  0.43071454  0.63695229  0.29750930    -0.02400
Br543      Br  0.53130264  0.55051112  0.39538564     0.00500
Br544      Br  0.45234918  0.63578910  0.42321164    -0.03900
C545        C  0.56977700  0.07157552  0.92081414    -0.11300
C546        C  0.59978024  0.10047360  0.92974069     0.04200
C547        C  0.62266474  0.12130341  0.90757966    -0.11800
C548        C  0.61586034  0.11406963  0.87639268     0.19000
C549        C  0.58637471  0.08428080  0.86758204    -0.08900
C550        C  0.56368048  0.06339922  0.88978653    -0.01800
H551        H  0.64554127  0.14370678  0.91468073     0.05600
C552        C  0.63957983  0.13796337  0.85351800     0.21000
H553        H  0.54065629  0.04109717  0.88279275     0.10700
C554        C  0.65513535  0.12685871  0.83269911    -0.15200
C555        C  0.67692915  0.14832733  0.81023762     0.03700
C556        C  0.68425945  0.18210046  0.80880730    -0.10500
C557        C  0.66881003  0.19322552  0.82978950    -0.00500
C558        C  0.64680718  0.17163414  0.85206530    -0.05700
H559        H  0.64995830  0.10112528  0.83370888     0.06700
H560        H  0.67414913  0.21902456  0.82911690     0.10100
Br561      Br  0.57477819  0.07151594  0.82567004    -0.05400
Br562      Br  0.60944390  0.11374182  0.97167878    -0.02400
Br563      Br  0.69376579  0.12900669  0.78115937     0.00500
Br564      Br  0.62700125  0.18953949  0.87941711    -0.03900
C565        C  0.50743416  0.07343257  0.92440994    -0.11300
C566        C  0.48537888  0.06077519  0.89932283     0.04200
C567        C  0.48243812  0.08302943  0.87950692    -0.11800
C568        C  0.50111359  0.11784307  0.88450335     0.19000
C569        C  0.52228960  0.13041928  0.91014860    -0.08900
C570        C  0.52538641  0.10821611  0.92984643    -0.01800
H571        H  0.46615938  0.07324310  0.85974085     0.05600
C572        C  0.49957949  0.14072955  0.86184331     0.21000
H573        H  0.54232812  0.11812024  0.94916728     0.10700
C574        C  0.47553872  0.15083943  0.86500763    -0.15200
C575        C  0.47346229  0.17231349  0.84354113     0.03700
C576        C  0.49607855  0.18425096  0.81863999    -0.10500
C577        C  0.52026586  0.17424573  0.81581497    -0.00500
C578        C  0.52183685  0.15235425  0.83691835    -0.05700
H579        H  0.45838329  0.14199540  0.88421856     0.06700
H580        H  0.53752020  0.18284116  0.79666667     0.10100
Br581      Br  0.54786085  0.17768205  0.91871273    -0.05400
Br582      Br  0.46044840  0.01360688  0.89020221    -0.02400
Br583      Br  0.44040755  0.18562274  0.85029231     0.00500
Br584      Br  0.55416291  0.13827733  0.83026932    -0.03900
C585        C  0.50076366  0.92686681  0.07499902    -0.11300
C586        C  0.50125105  0.89807600  0.06477420     0.04200
C587        C  0.50518624  0.87734855  0.08576230    -0.11800
C588        C  0.50800272  0.88449390  0.11714017     0.19000
C589        C  0.50834081  0.91387135  0.12723339    -0.08900
C590        C  0.50474424  0.93472538  0.10617397    -0.01800
H591        H  0.50513686  0.85503650  0.07766242     0.05600
C592        C  0.50929821  0.86051685  0.13904994     0.21000
H593        H  0.50421770  0.95676863  0.11421336     0.10700
C594        C  0.53736140  0.87137697  0.15824082    -0.15200
C595        C  0.53827158  0.85022762  0.18077846     0.03700
C596        C  0.51082114  0.81705793  0.18405351    -0.10500
C597        C  0.48329385  0.80597155  0.16407071    -0.00500
C598        C  0.48234197  0.82721356  0.14177672    -0.05700
H599        H  0.55835517  0.89682772  0.15617993     0.06700
H600        H  0.46209539  0.78061612  0.16593628     0.10100
Br601      Br  0.51176414  0.92584853  0.16958360    -0.05400
Br602      Br  0.49403635  0.88472606  0.02273329    -0.02400
Br603      Br  0.57658468  0.86944839  0.20755533     0.00500
Br604      Br  0.44277347  0.80967443  0.11670923    -0.03900
C605        C  0.31502389  0.81310979  0.18010721    -0.11300
C606        C  0.30409558  0.82322292  0.15418075     0.04200
C607        C  0.32769333  0.84497847  0.13291828    -0.11800
C608        C  0.36210106  0.85671914  0.13702380     0.19000
C609        C  0.37299124  0.84617416  0.16251834    -0.08900
C610        C  0.34947287  0.82437085  0.18375097    -0.01800
H611        H  0.31920037  0.85262834  0.11302179     0.05600
C612        C  0.38640015  0.87986431  0.11445770     0.21000
H613        H  0.35819394  0.81669899  0.20347714     0.10700
C614        C  0.40199752  0.91464159  0.11942127    -0.15200
C615        C  0.42665279  0.93719361  0.09931842     0.03700
C616        C  0.43621269  0.92482409  0.07415185    -0.10500
C617        C  0.41976063  0.89006595  0.06868874    -0.00500
C618        C  0.39485316  0.86758587  0.08856148    -0.05700
H619        H  0.39533139  0.92418359  0.13924054     0.06700
H620        H  0.42667020  0.88041421  0.04911722     0.10100
Br621      Br  0.41970760  0.86110366  0.16925752    -0.05400
Br622      Br  0.25727697  0.80645973  0.14559446    -0.02400
Br623      Br  0.44756737  0.98441188  0.10787983     0.00500
Br624      Br  0.37332959  0.82038637  0.07979624    -0.03900
loop_ 
_geom_bond_atom_site_label_1 
_geom_bond_atom_site_label_2 
_geom_bond_distance 
_geom_bond_site_symmetry_2 
_ccdc_geom_bond_type 
C1            S2   1.798       .  S
C1            S5   1.798       .  S
C1            C9   1.349   1_546  D
S2            C3   1.787       .  S
C3            C4   1.344       .  D
C3          C565   1.480       .  S
C4            S5   1.791       .  S
C4          C545   1.480       .  S
C6           S10   1.791       .  S
C6            C7   1.344       .  D
C6          C585   1.483       .  S
C7            S8   1.788       .  S
C7          C616   1.478       .  S
S8            C9   1.797       .  S
C9           S10   1.799       .  S
O11         Cu19   2.009       .  S
O11          C21   1.279       .  A
O12         Cu19   2.003       .  S
O12          C22   1.276       .  A
O13         Cu19   1.999       .  S
O13          C23   1.276       .  A
O14         Cu19   2.002       .  S
O14          C24   1.276       .  A
O15         Cu20   2.014       .  S
O15          C24   1.278       .  A
O16         Cu20   2.018       .  S
O16          C23   1.279       .  A
O17         Cu20   2.014       .  S
O17          C22   1.279       .  A
O18         Cu20   2.013       .  S
O18          C21   1.277       .  A
Cu19        Cu20   2.370       .  S
C21         C596   1.486       .  S
C22         C525   1.486       .  S
C23         C496   1.479       .  S
C24         C505   1.470       .  S
O25         Cu33   1.991       .  S
O25          C35   1.274       .  A
O26         Cu33   1.992       .  S
O26          C36   1.274       .  A
O27         Cu33   2.013       .  S
O27          C37   1.279       .  A
O28         Cu33   2.009       .  S
O28          C38   1.279       .  A
O29         Cu34   2.004       .  S
O29          C38   1.276       .  A
O30         Cu34   2.004       .  S
O30          C37   1.277       .  A
O31         Cu34   2.027       .  S
O31          C36   1.281       .  A
O32         Cu34   2.021       .  S
O32          C35   1.280       .  A
Cu33        Cu34   2.368       .  S
C35         C445   1.485       .  S
C36         C436   1.488       .  S
C37         C465   1.480       .  S
C38         C576   1.475       .  S
O39         Cu47   1.994       .  S
O39          C49   1.274       .  A
O40         Cu47   1.996       .  S
O40          C50   1.275       .  A
O41         Cu47   2.008       .  S
O41          C51   1.278       .  A
O42         Cu47   2.008       .  S
O42          C52   1.279       .  A
O43         Cu48   2.000       .  S
O43          C52   1.275       .  A
O44         Cu48   1.996       .  S
O44          C51   1.275       .  A
O45         Cu48   2.013       .  S
O45          C50   1.279       .  A
O46         Cu48   2.013       .  S
O46          C49   1.280       .  A
Cu47        Cu48   2.366       .  S
C49         C385   1.487       .  S
C50         C556   1.480       .  S
C51         C376   1.480       .  S
C52         C405   1.484       .  S
O53         Cu61   2.007       .  S
O53          C63   1.278       .  A
O54         Cu61   2.006       .  S
O54          C64   1.277       .  A
O55         Cu61   2.002       .  S
O55          C65   1.278       .  A
O56         Cu61   2.001       .  S
O56          C66   1.276       .  A
O57         Cu62   2.010       .  S
O57          C66   1.279       .  A
O58         Cu62   2.015       .  S
O58          C65   1.277       .  A
O59         Cu62   2.003       .  S
O59          C64   1.277       .  A
O60         Cu62   2.008       .  S
O60          C63   1.277       .  A
Cu61        Cu62   2.367       .  S
C63         C345   1.483       .  S
C64         C605   1.473       .  S
C65         C316   1.491       .  S
C66         C336   1.485       .  S
C67          S68   1.797       .  S
C67          S71   1.796       .  S
C67          C75   1.348   1_454  D
S68          C69   1.789       .  S
C69          C70   1.347       .  D
C69         C325   1.481       .  S
C70          S71   1.790       .  S
C70         C265   1.482       .  S
C72          S76   1.787       .  S
C72          C73   1.348       .  D
C72         C416   1.478       .  S
C73          S74   1.792       .  S
C73         C296   1.487       .  S
S74          C75   1.797       .  S
C75          S76   1.797       .  S
C77          S78   1.796       .  S
C77          S81   1.797       .  S
C77          C85   1.349   1_455  D
S78          C79   1.789       .  S
C79          C80   1.349       .  D
C79         C225   1.483       .  S
C80          S81   1.791       .  S
C80         C356   1.482       .  S
C82          S86   1.790       .  S
C82          C83   1.347       .  D
C82         C245   1.482       .  S
C83          S84   1.790       .  S
C83         C396   1.483       .  S
S84          C85   1.796       .  S
C85          S86   1.798       .  S
O87         Cu95   2.007       .  S
O87          C97   1.277       .  A
O88         Cu95   2.005       .  S
O88          C98   1.278       .  A
O89         Cu95   2.006       .  S
O89          C99   1.277       .  A
O90         Cu95   2.005       .  S
O90         C100   1.278       .  A
O91         Cu96   2.005       .  S
O91         C100   1.276       .  A
O92         Cu96   2.001       .  S
O92          C99   1.277       .  A
O93         Cu96   2.004       .  S
O93          C98   1.276       .  A
O94         Cu96   2.001       .  S
O94          C97   1.277       .  A
Cu95        Cu96   2.369       .  S
C97         C276   1.475       .  S
C98         C216   1.489       .  S
C99         C236   1.472       .  S
C100        C196   1.483       .  S
O101       Cu109   2.006       .  S
O101        C111   1.278       .  A
O102       Cu109   2.014       .  S
O102        C112   1.278       .  A
O103       Cu109   2.011       .  S
O103        C113   1.278       .  A
O104       Cu109   2.008       .  S
O104        C114   1.276       .  A
O105       Cu110   2.015       .  S
O105        C114   1.280       .  A
O106       Cu110   2.008       .  S
O106        C113   1.277       .  A
O107       Cu110   2.008       .  S
O107        C112   1.277       .  A
O108       Cu110   2.009       .  S
O108        C111   1.278       .  A
Cu109      Cu110   2.370       .  S
C111        C285   1.478       .  S
C112        C165   1.479       .  S
C113        C256   1.472       .  S
C114        C145   1.492       .  S
C115        S116   1.796       .  S
C115        S119   1.798       .  S
C115        C123   1.349   1_554  D
S116        C117   1.786       .  S
C117        C118   1.348       .  D
C117        C185   1.479       .  S
C118        S119   1.794       .  S
C118        C516   1.489       .  S
C120        S124   1.791       .  S
C120        C121   1.344       .  D
C120        C156   1.481       .  S
C121        S122   1.787       .  S
C121        C456   1.479       .  S
S122        C123   1.797       .  S
C123        S124   1.799       .  S
C125        S126   1.798       .  S
C125        S129   1.800       .  S
C125        C133   1.350       .  D
S126        C127   1.789       .  S
C127        C128   1.343       .  D
C127        C205   1.479       .  S
C128        S129   1.790       .  S
C128        C536   1.482       .  S
C130        S134   1.790       .  S
C130        C131   1.348       .  D
C130        C176   1.483       .  S
C131        S132   1.790       .  S
C131        C476   1.483       .  S
S132        C133   1.798       .  S
C133        S134   1.798       .  S
C135        S136   1.794       .  S
C135        S139   1.798       .  S
C135        C143   1.347   1_545  D
S136        C137   1.785       .  S
C137        C138   1.346       .  D
C137        C365   1.479       .  S
C138        S139   1.794       .  S
C138        C425   1.484       .  S
C140        S144   1.795       .  S
C140        C141   1.349       .  D
C140        C305   1.487       .  S
C141        S142   1.784       .  S
C141        C485   1.480       .  S
S142        C143   1.795       .  S
C143        S144   1.795       .  S
C145        C146   1.420       .  A
C145        C150   1.410       .  A
C146        C147   1.400       .  A
C146       Br162   1.922       .  S
C147        C148   1.399       .  A
C147        H151   1.084       .  S
C148        C152   1.477       .  S
C148        C149   1.404       .  A
C149        C150   1.399       .  A
C149       Br161   1.919       .  S
C150        H153   1.083       .  S
C152        C154   1.403       .  A
C152        C158   1.408       .  A
C154        C155   1.400       .  A
C154        H159   1.083       .  S
C155        C156   1.408       .  A
C155       Br163   1.918       .  S
C156        C157   1.402       .  A
C157        C158   1.397       .  A
C157        H160   1.083       .  S
C158       Br164   1.918       .  S
C165        C166   1.413       .  A
C165        C170   1.405       .  A
C166        C167   1.400       .  A
C166       Br182   1.920       .  S
C167        C168   1.400       .  A
C167        H171   1.084       .  S
C168        C172   1.475       .  S
C168        C169   1.407       .  A
C169        C170   1.400       .  A
C169       Br181   1.918       .  S
C170        H173   1.084       .  S
C172        C174   1.401       .  A
C172        C178   1.407       .  A
C174        C175   1.398       .  A
C174        H179   1.084       .  S
C175        C176   1.409       .  A
C175       Br183   1.918       .  S
C176        C177   1.402       .  A
C177        C178   1.399       .  A
C177        H180   1.084       .  S
C178       Br184   1.918       .  S
C185        C186   1.407       .  A
C185        C190   1.401       .  A
C186        C187   1.396       .  A
C186       Br202   1.916       .  S
C187        C188   1.402       .  A
C187        H191   1.083       .  S
C188        C192   1.477       .  S
C188        C189   1.409       .  A
C189        C190   1.398       .  A
C189       Br201   1.919       .  S
C190        H193   1.083       .  S
C192        C194   1.401       .  A
C192        C198   1.406       .  A
C194        C195   1.399       .  A
C194        H199   1.083       .  S
C195        C196   1.417       .  A
C195       Br203   1.922       .  S
C196        C197   1.407       .  A
C197        C198   1.396       .  A
C197        H200   1.083       .  S
C198       Br204   1.920       .  S
C205        C206   1.407       .  A
C205        C210   1.403       .  A
C206        C207   1.398       .  A
C206       Br222   1.918       .  S
C207        C208   1.401       .  A
C207        H211   1.083       .  S
C208        C212   1.472       .  S
C208        C209   1.406       .  A
C209        C210   1.396       .  A
C209       Br221   1.919       .  S
C210        H213   1.083       .  S
C212        C214   1.398       .  A
C212        C218   1.402       .  A
C214        C215   1.399       .  A
C214        H219   1.085       .  S
C215        C216   1.420       .  A
C215       Br223   1.921       .  S
C216        C217   1.410       .  A
C217        C218   1.396       .  A
C217        H220   1.083       .  S
C218       Br224   1.918       .  S
C225        C226   1.410       .  A
C225        C230   1.403       .  A
C226        C227   1.397       .  A
C226       Br242   1.917       .  S
C227        C228   1.401       .  A
C227        H231   1.084       .  S
C228        C232   1.472       .  S
C228        C229   1.405       .  A
C229        C230   1.398       .  A
C229       Br241   1.918       .  S
C230        H233   1.084       .  S
C232        C234   1.401       .  A
C232        C238   1.406       .  A
C234        C235   1.399       .  A
C234        H239   1.083       .  S
C235        C236   1.411       .  A
C235       Br243   1.920       .  S
C236        C237   1.403       .  A
C237        C238   1.396       .  A
C237        H240   1.083       .  S
C238       Br244   1.919       .  S
C245        C246   1.409       .  A
C245        C250   1.402       .  A
C246        C247   1.399       .  A
C246       Br262   1.916       .  S
C247        C248   1.402       .  A
C247        H251   1.083       .  S
C248        C252   1.477       .  S
C248        C249   1.407       .  A
C249        C250   1.399       .  A
C249       Br261   1.917       .  S
C250        H253   1.083       .  S
C252        C254   1.402       .  A
C252        C258   1.407       .  A
C254        C255   1.399       .  A
C254        H259   1.077       .  S
C255        C256   1.409       .  A
C255       Br263   1.921       .  S
C256        C257   1.404       .  A
C257        C258   1.401       .  A
C257        H260   1.080       .  S
C258       Br264   1.917       .  S
C265        C266   1.410       .  A
C265        C270   1.404       .  A
C266        C267   1.399       .  A
C266       Br282   1.919       .  S
C267        C268   1.401       .  A
C267        H271   1.083       .  S
C268        C272   1.472       .  S
C268        C269   1.406       .  A
C269        C270   1.395       .  A
C269       Br281   1.919       .  S
C270        H273   1.083       .  S
C272        C274   1.400       .  A
C272        C278   1.406       .  A
C274        C275   1.399       .  A
C274        H279   1.083       .  S
C275        C276   1.413       .  A
C275       Br283   1.920       .  S
C276        C277   1.405       .  A
C277        C278   1.396       .  A
C277        H280   1.083       .  S
C278       Br284   1.920       .  S
C285        C286   1.413       .  A
C285        C290   1.405       .  A
C286        C287   1.399       .  A
C286       Br302   1.921       .  S
C287        C288   1.402       .  A
C287        H291   1.084       .  S
C288        C292   1.479       .  S
C288        C289   1.408       .  A
C289        C290   1.398       .  A
C289       Br301   1.920       .  S
C290        H293   1.083       .  S
C292        C294   1.403       .  A
C292        C298   1.407       .  A
C294        C295   1.399       .  A
C294        H299   1.084       .  S
C295        C296   1.410       .  A
C295       Br303   1.919       .  S
C296        C297   1.405       .  A
C297        C298   1.396       .  A
C297        H300   1.083       .  S
C298       Br304   1.919       .  S
C305        C306   1.412       .  A
C305        C310   1.405       .  A
C306        C307   1.399       .  A
C306       Br322   1.920       .  S
C307        C308   1.401       .  A
C307        H311   1.084       .  S
C308        C312   1.473       .  S
C308        C309   1.405       .  A
C309        C310   1.396       .  A
C309       Br321   1.918       .  S
C310        H313   1.083       .  S
C312        C314   1.398       .  A
C312        C318   1.403       .  A
C314        C315   1.400       .  A
C314        H319   1.084       .  S
C315        C316   1.420       .  A
C315       Br323   1.922       .  S
C316        C317   1.411       .  A
C317        C318   1.397       .  A
C317        H320   1.083       .  S
C318       Br324   1.920       .  S
C325        C326   1.408       .  A
C325        C330   1.402       .  A
C326        C327   1.397       .  A
C326       Br342   1.915       .  S
C327        C328   1.402       .  A
C327        H331   1.083       .  S
C328        C332   1.477       .  S
C328        C329   1.409       .  A
C329        C330   1.399       .  A
C329       Br341   1.918       .  S
C330        H333   1.083       .  S
C332        C334   1.400       .  A
C332        C338   1.406       .  A
C334        C335   1.397       .  A
C334        H339   1.085       .  S
C335        C336   1.418       .  A
C335       Br343   1.922       .  S
C336        C337   1.408       .  A
C337        C338   1.399       .  A
C337        H340   1.084       .  S
C338       Br344   1.919       .  S
C345        C346   1.416       .  A
C345        C350   1.406       .  A
C346        C347   1.401       .  A
C346       Br362   1.921       .  S
C347        C348   1.401       .  A
C347        H351   1.083       .  S
C348        C352   1.477       .  S
C348        C349   1.407       .  A
C349        C350   1.396       .  A
C349       Br361   1.921       .  S
C350        H353   1.083       .  S
C352        C354   1.403       .  A
C352        C358   1.408       .  A
C354        C355   1.399       .  A
C354        H359   1.083       .  S
C355        C356   1.409       .  A
C355       Br363   1.918       .  S
C356        C357   1.402       .  A
C357        C358   1.398       .  A
C357        H360   1.083       .  S
C358       Br364   1.919       .  S
C365        C366   1.409       .  A
C365        C370   1.403       .  A
C366        C367   1.396       .  A
C366       Br382   1.919       .  S
C367        C368   1.400       .  A
C367        H371   1.084       .  S
C368        C372   1.470       .  S
C368        C369   1.407       .  A
C369        C370   1.395       .  A
C369       Br381   1.919       .  S
C370        H373   1.083       .  S
C372        C374   1.398       .  A
C372        C378   1.404       .  A
C374        C375   1.396       .  A
C374        H379   1.084       .  S
C375        C376   1.417       .  A
C375       Br383   1.922       .  S
C376        C377   1.407       .  A
C377        C378   1.397       .  A
C377        H380   1.083       .  S
C378       Br384   1.919       .  S
C385        C386   1.421       .  A
C385        C390   1.408       .  A
C386        C387   1.398       .  A
C386       Br402   1.923       .  S
C387        C388   1.397       .  A
C387        H391   1.084       .  S
C388        C392   1.473       .  S
C388        C389   1.404       .  A
C389        C390   1.396       .  A
C389       Br401   1.917       .  S
C390        H393   1.083       .  S
C392        C394   1.401       .  A
C392        C398   1.407       .  A
C394        C395   1.397       .  A
C394        H399   1.084       .  S
C395        C396   1.410       .  A
C395       Br403   1.919       .  S
C396        C397   1.404       .  A
C397        C398   1.396       .  A
C397        H400   1.083       .  S
C398       Br404   1.919       .  S
C405        C406   1.419       .  A
C405        C410   1.408       .  A
C406        C407   1.398       .  A
C406       Br422   1.923       .  S
C407        C408   1.399       .  A
C407        H411   1.085       .  S
C408        C412   1.473       .  S
C408        C409   1.404       .  A
C409        C410   1.397       .  A
C409       Br421   1.918       .  S
C410        H413   1.084       .  S
C412        C414   1.401       .  A
C412        C418   1.408       .  A
C414        C415   1.397       .  A
C414        H419   1.084       .  S
C415        C416   1.407       .  A
C415       Br423   1.916       .  S
C416        C417   1.401       .  A
C417        C418   1.397       .  A
C417        H420   1.084       .  S
C418       Br424   1.919       .  S
C425        C426   1.408       .  A
C425        C430   1.403       .  A
C426        C427   1.399       .  A
C426       Br442   1.918       .  S
C427        C428   1.404       .  A
C427        H431   1.084       .  S
C428        C432   1.483       .  S
C428        C429   1.411       .  A
C429        C430   1.399       .  A
C429       Br441   1.920       .  S
C430        H433   1.084       .  S
C432        C434   1.401       .  A
C432        C438   1.408       .  A
C434        C435   1.398       .  A
C434        H439   1.085       .  S
C435        C436   1.419       .  A
C435       Br443   1.924       .  S
C436        C437   1.407       .  A
C437        C438   1.400       .  A
C437        H440   1.084       .  S
C438       Br444   1.919       .  S
C445        C446   1.418       .  A
C445        C450   1.408       .  A
C446        C447   1.395       .  A
C446       Br462   1.923       .  S
C447        C448   1.398       .  A
C447        H451   1.084       .  S
C448        C452   1.475       .  S
C448        C449   1.406       .  A
C449        C450   1.400       .  A
C449       Br461   1.918       .  S
C450        H453   1.083       .  S
C452        C454   1.402       .  A
C452        C458   1.408       .  A
C454        C455   1.398       .  A
C454        H459   1.084       .  S
C455        C456   1.407       .  A
C455       Br463   1.918       .  S
C456        C457   1.402       .  A
C457        C458   1.396       .  A
C457        H460   1.083       .  S
C458       Br464   1.919       .  S
C465        C466   1.414       .  A
C465        C470   1.405       .  A
C466        C467   1.398       .  A
C466       Br482   1.921       .  S
C467        C468   1.401       .  A
C467        H471   1.084       .  S
C468        C472   1.480       .  S
C468        C469   1.410       .  A
C469        C470   1.400       .  A
C469       Br481   1.921       .  S
C470        H473   1.083       .  S
C472        C474   1.403       .  A
C472        C478   1.409       .  A
C474        C475   1.397       .  A
C474        H479   1.083       .  S
C475        C476   1.408       .  A
C475       Br483   1.918       .  S
C476        C477   1.402       .  A
C477        C478   1.399       .  A
C477        H480   1.083       .  S
C478       Br484   1.919       .  S
C485        C486   1.408       .  A
C485        C490   1.402       .  A
C486        C487   1.398       .  A
C486       Br502   1.916       .  S
C487        C488   1.401       .  A
C487        H491   1.084       .  S
C488        C492   1.472       .  S
C488        C489   1.406       .  A
C489        C490   1.397       .  A
C489       Br501   1.917       .  S
C490        H493   1.084       .  S
C492        C494   1.398       .  A
C492        C498   1.406       .  A
C494        C495   1.396       .  A
C494        H499   1.084       .  S
C495        C496   1.414       .  A
C495       Br503   1.921       .  S
C496        C497   1.407       .  A
C497        C498   1.401       .  A
C497        H500   1.084       .  S
C498       Br504   1.918       .  S
C505        C506   1.408       .  A
C505        C510   1.404       .  A
C506        C507   1.398       .  A
C506       Br522   1.919       .  S
C507        C508   1.401       .  A
C507        H511   1.083       .  S
C508        C512   1.473       .  S
C508        C509   1.407       .  A
C509        C510   1.400       .  A
C509       Br521   1.920       .  S
C510        H513   1.083       .  S
C512        C514   1.401       .  A
C512        C518   1.405       .  A
C514        C515   1.400       .  A
C514        H519   1.083       .  S
C515        C516   1.411       .  A
C515       Br523   1.919       .  S
C516        C517   1.406       .  A
C517        C518   1.396       .  A
C517        H520   1.082       .  S
C518       Br524   1.918       .  S
C525        C526   1.417       .  A
C525        C530   1.408       .  A
C526        C527   1.399       .  A
C526       Br542   1.920       .  S
C527        C528   1.400       .  A
C527        H531   1.084       .  S
C528        C532   1.477       .  S
C528        C529   1.406       .  A
C529        C530   1.399       .  A
C529       Br541   1.918       .  S
C530        H533   1.083       .  S
C532        C534   1.403       .  A
C532        C538   1.408       .  A
C534        C535   1.399       .  A
C534        H539   1.083       .  S
C535        C536   1.407       .  A
C535       Br543   1.917       .  S
C536        C537   1.403       .  A
C537        C538   1.398       .  A
C537        H540   1.083       .  S
C538       Br544   1.918       .  S
C545        C546   1.406       .  A
C545        C550   1.402       .  A
C546        C547   1.398       .  A
C546       Br562   1.918       .  S
C547        C548   1.405       .  A
C547        H551   1.084       .  S
C548        C552   1.482       .  S
C548        C549   1.412       .  A
C549        C550   1.397       .  A
C549       Br561   1.921       .  S
C550        H553   1.083       .  S
C552        C554   1.402       .  A
C552        C558   1.411       .  A
C554        C555   1.398       .  A
C554        H559   1.083       .  S
C555        C556   1.414       .  A
C555       Br563   1.922       .  S
C556        C557   1.404       .  A
C557        C558   1.398       .  A
C557        H560   1.083       .  S
C558       Br564   1.920       .  S
C565        C566   1.408       .  A
C565        C570   1.403       .  A
C566        C567   1.399       .  A
C566       Br582   1.917       .  S
C567        C568   1.402       .  A
C567        H571   1.083       .  S
C568        C572   1.474       .  S
C568        C569   1.407       .  A
C569        C570   1.397       .  A
C569       Br581   1.917       .  S
C570        H573   1.083       .  S
C572        C574   1.401       .  A
C572        C578   1.405       .  A
C574        C575   1.401       .  A
C574        H579   1.083       .  S
C575        C576   1.414       .  A
C575       Br583   1.920       .  S
C576        C577   1.402       .  A
C577        C578   1.395       .  A
C577        H580   1.083       .  S
C578       Br584   1.913       .  S
C585        C586   1.407       .  A
C585        C590   1.402       .  A
C586        C587   1.400       .  A
C586       Br602   1.918       .  S
C587        C588   1.405       .  A
C587        H591   1.083       .  S
C588        C592   1.485       .  S
C588        C589   1.412       .  A
C589        C590   1.399       .  A
C589       Br601   1.920       .  S
C590        H593   1.083       .  S
C592        C594   1.403       .  A
C592        C598   1.410       .  A
C594        C595   1.401       .  A
C594        H599   1.083       .  S
C595        C596   1.416       .  A
C595       Br603   1.921       .  S
C596        C597   1.406       .  A
C597        C598   1.398       .  A
C597        H600   1.083       .  S
C598       Br604   1.919       .  S
C605        C606   1.412       .  A
C605        C610   1.403       .  A
C606        C607   1.398       .  A
C606       Br622   1.920       .  S
C607        C608   1.400       .  A
C607        H611   1.083       .  S
C608        C612   1.471       .  S
C608        C609   1.406       .  A
C609        C610   1.397       .  A
C609       Br621   1.917       .  S
C610        H613   1.083       .  S
C612        C614   1.402       .  A
C612        C618   1.405       .  A
C614        C615   1.398       .  A
C614        H619   1.084       .  S
C615        C616   1.407       .  A
C615       Br623   1.918       .  S
C616        C617   1.403       .  A
C617        C618   1.396       .  A
C617        H620   1.083       .  S
C618       Br624   1.917       .  S
