geometry optimzed in LAMMPS
_audit_creation_date              2020-11-30 
_audit_creation_method            'lammps2cif' 
_symmetry_space_group_name_H-M    'P1' 
_symmetry_Int_Tables_number       1 
_symmetry_cell_setting            triclinic 
loop_ 
_symmetry_equiv_pos_as_xyz 
  x,y,z 
_cell_length_a                    46.94974081 
_cell_length_b                    47.16913510853366 
_cell_length_c                    45.934435867458966 
_cell_angle_alpha                 89.97912644189988 
_cell_angle_beta                  89.9554707304595 
_cell_angle_gamma                 89.8970468818836 
loop_ 
_atom_site_label 
_atom_site_type_symbol 
_atom_site_fract_x 
_atom_site_fract_y 
_atom_site_fract_z 
_atom_site_charge 
O1          O  0.46237937  0.22972851  0.97157532    -0.72900
O2          O  0.52155456  0.23385589  0.03424211    -0.73900
O3          O  0.46147877  0.23003753  0.03324696    -0.62500
O4          O  0.52266412  0.23368638  0.97240758    -0.70900
O5          O  0.52027473  0.28064638  0.97297937    -0.70400
O6          O  0.45737652  0.27687182  0.03229937    -0.61700
O7          O  0.51800670  0.28072804  0.03467341    -0.74200
O8          O  0.45981264  0.27665241  0.97032933    -0.73000
Cu9        Cu  0.49212317  0.23023229  0.00285032     1.04600
Cu10       Cu  0.48873997  0.28038498  0.00254909     1.04300
C11         C  0.45175372  0.25243299  0.96093891     0.93300
C12         C  0.52908463  0.25786463  0.04453390     0.92500
C13         C  0.44966671  0.25279535  0.04236099     0.84600
C14         C  0.53139319  0.25776152  0.96329473     0.90900
O15         O  0.22513050  0.53080637  0.96073442    -0.72900
O16         O  0.22431829  0.47248610  0.02463313    -0.73900
O17         O  0.22257205  0.53278072  0.02242348    -0.62500
O18         O  0.22687375  0.47064210  0.96276217    -0.70900
O19         O  0.27402710  0.47239871  0.96426879    -0.70400
O20         O  0.26972532  0.53340412  0.02499114    -0.61700
O21         O  0.27150590  0.47317827  0.02596200    -0.74200
O22         O  0.27223441  0.53270167  0.96314803    -0.73000
Cu23       Cu  0.22308727  0.50161629  0.99258005     1.04600
Cu24       Cu  0.27350227  0.50296697  0.99466132     1.04300
C25         C  0.24877678  0.54116036  0.95194856     0.93300
C26         C  0.24779456  0.46344580  0.03529851     0.92500
C27         C  0.24550078  0.54291924  0.03317428     0.84600
C28         C  0.25113917  0.46175833  0.95396076     0.90900
O29         O  0.53763378  0.77676170  0.97368554    -0.72900
O30         O  0.47709849  0.77040598  0.03519749    -0.73900
O31         O  0.53773384  0.77262534  0.03539041    -0.62500
O32         O  0.47704599  0.77448385  0.97365337    -0.70900
O33         O  0.47946247  0.72762294  0.97018358    -0.70400
O34         O  0.53978923  0.72579200  0.03186033    -0.61700
O35         O  0.47906138  0.72356147  0.03190189    -0.74200
O36         O  0.53947899  0.72990159  0.97034594    -0.73000
Cu37       Cu  0.50731387  0.77520437  0.00464326     1.04600
Cu38       Cu  0.50948696  0.72510053  0.00103888     1.04300
C39         C  0.54804136  0.75434265  0.96216535     0.93300
C40         C  0.46827762  0.74596512  0.04310320     0.92500
C41         C  0.54861803  0.74892802  0.04314244     0.84600
C42         C  0.46888989  0.75128470  0.96197491     0.90900
O43         O  0.76221775  0.46775451  0.97220345    -0.72900
O44         O  0.76919229  0.52611356  0.03570035    -0.73900
O45         O  0.76772136  0.46631780  0.03409635    -0.62500
O46         O  0.76399303  0.52794337  0.97402505    -0.70900
O47         O  0.71698118  0.52930801  0.97825343    -0.70400
O48         O  0.72062631  0.46691714  0.03804836    -0.61700
O49         O  0.72215526  0.52719507  0.03990873    -0.74200
O50         O  0.71520818  0.46918833  0.97644566    -0.73000
Cu51       Cu  0.76740492  0.49696212  0.00382539     1.04600
Cu52       Cu  0.71711170  0.49818203  0.00831022     1.04300
C53         C  0.73755337  0.45936047  0.96413838     0.93300
C54         C  0.74672763  0.53577410  0.04796399     0.92500
C55         C  0.74485666  0.45704678  0.04577907     0.84600
C56         C  0.73995703  0.53846071  0.96661896     0.90900
O57         O  0.24225034  0.03198917  0.46284520    -0.72900
O58         O  0.24919327  0.97274950  0.52537399    -0.73900
O59         O  0.24638502  0.03285998  0.52452085    -0.62500
O60         O  0.24515525  0.97170049  0.46361096    -0.70900
O61         O  0.29223463  0.97350443  0.46065024    -0.70400
O62         O  0.29344539  0.03490146  0.52131076    -0.61700
O63         O  0.29626673  0.97475069  0.52249085    -0.74200
O64         O  0.28929835  0.03381946  0.45943590    -0.73000
Cu65       Cu  0.24413384  0.00224717  0.49418694     1.04600
Cu66       Cu  0.29444891  0.00432475  0.49082907     1.04300
C67         C  0.26468940  0.04232175  0.45120738     0.93300
C68         C  0.27372288  0.96445414  0.53398989     0.92500
C69         C  0.27010157  0.04354260  0.53261106     0.84600
C70         C  0.26852275  0.96280011  0.45256076     0.90900
O71         O  0.98070053  0.76960189  0.53879099    -0.72900
O72         O  0.03660457  0.77156783  0.47270938    -0.73900
O73         O  0.97654022  0.77301263  0.47697767    -0.62500
O74         O  0.04095761  0.76801174  0.53444617    -0.70900
O75         O  0.03873181  0.72109584  0.53289822    -0.70400
O76         O  0.97620168  0.72613711  0.47358650    -0.61700
O77         O  0.03650752  0.72456199  0.47119843    -0.74200
O78         O  0.97831649  0.72277422  0.53534092    -0.73000
Cu79       Cu  0.00874031  0.77218195  0.50585639     1.04600
Cu80       Cu  0.00738711  0.72201731  0.50318093     1.04300
C81         C  0.97054185  0.74592916  0.54744989     0.93300
C82         C  0.04540744  0.74836033  0.46150024     0.92500
C83         C  0.96652977  0.75031454  0.46576159     0.84600
C84         C  0.04987228  0.74375709  0.54298236     0.90900
O85         O  0.77875963  0.02631379  0.53666047    -0.72900
O86         O  0.77752755  0.96627685  0.47432800    -0.73900
O87         O  0.77986439  0.02652138  0.47470290    -0.62500
O88         O  0.77652520  0.96597496  0.53602960    -0.70900
O89         O  0.72936296  0.96858719  0.53584017    -0.70400
O90         O  0.73268498  0.02776601  0.47319373    -0.61700
O91         O  0.73032697  0.96759597  0.47423833    -0.74200
O92         O  0.73163590  0.02866880  0.53502899    -0.73000
Cu93       Cu  0.77982272  0.99624470  0.50545928     1.04600
Cu94       Cu  0.72938528  0.99825509  0.50454615     1.04300
C95         C  0.75531880  0.03705970  0.54566077     0.93300
C96         C  0.75368383  0.95715895  0.46471494     0.92500
C97         C  0.75681958  0.03659282  0.46406220     0.84600
C98         C  0.75237603  0.95762167  0.54557304     0.90900
O99         O  0.02062854  0.27230035  0.46894779    -0.72900
O100        O  0.96335154  0.27840285  0.53380521    -0.73900
O101        O  0.02370718  0.27605774  0.53049937    -0.62500
O102        O  0.96039158  0.27480337  0.47232718    -0.70900
O103        O  0.95976805  0.22779945  0.47371388    -0.70400
O104        O  0.02095961  0.22933900  0.53502768    -0.61700
O105        O  0.96037524  0.23153566  0.53561373    -0.74200
O106        O  0.02028555  0.22547834  0.47342802    -0.73000
Cu107      Cu  0.99206353  0.27700315  0.50130025     1.04600
Cu108      Cu  0.99026399  0.22688600  0.50456418     1.04300
C109        C  0.02978432  0.24789651  0.46119824     0.93300
C110        C  0.95256904  0.25593493  0.54478443     0.92500
C111        C  0.03235175  0.25296569  0.54207317     0.84600
C112        C  0.95024677  0.25120633  0.46354085     0.90900
C113        C  0.22579604  0.26868201  0.21659899     0.02300
C114        C  0.24801172  0.24832792  0.21633599     0.02300
C115        C  0.24839735  0.22696310  0.23765839    -0.18200
C116        C  0.22689989  0.22500410  0.25886688     0.02300
C117        C  0.20430931  0.24499711  0.25868368     0.02300
C118        C  0.20401105  0.26640687  0.23739375    -0.18200
H119        H  0.18721787  0.28222023  0.23774499     0.04400
H120        H  0.26536969  0.21134122  0.23744096     0.04400
C121        C  0.72163743  0.24308141  0.22989682     0.02300
C122        C  0.74428646  0.26275035  0.22723000     0.02300
C123        C  0.76670094  0.26200598  0.24746234    -0.18200
C124        C  0.76703566  0.24218826  0.27024182     0.02300
C125        C  0.74448325  0.22251082  0.27281921     0.02300
C126        C  0.72210151  0.22320439  0.25263544    -0.27000
H127        H  0.70482682  0.20809667  0.25466444     0.04400
H128        H  0.78401897  0.27707350  0.24553094     0.04400
C129        C  0.71460650  0.25467202  0.76982483     0.02300
C130        C  0.73678009  0.27498110  0.77025436     0.02300
C131        C  0.75806287  0.27392070  0.74875440    -0.18200
C132        C  0.75795694  0.25302947  0.72693827     0.02300
C133        C  0.73632907  0.23208627  0.72721441     0.02300
C134        C  0.71475291  0.23354732  0.74830934    -0.18200
H135        H  0.69833618  0.21740157  0.74859242     0.04400
H136        H  0.77455357  0.28998595  0.74865562     0.04400
C137        C  0.73450250  0.75045598  0.23400742     0.02300
C138        C  0.75190762  0.72586401  0.23545720     0.02300
C139        C  0.77309220  0.72406128  0.25698338    -0.18200
C140        C  0.77718965  0.74598674  0.27717746     0.02300
C141        C  0.75959184  0.77027598  0.27594916     0.02300
C142        C  0.73867939  0.77230830  0.25430974    -0.18200
H143        H  0.72537368  0.79110858  0.25339026     0.04400
H144        H  0.78652953  0.70536411  0.25806473     0.04400
C145        C  0.75323051  0.72318712  0.77324197     0.02300
C146        C  0.73121441  0.74335595  0.76928214     0.02300
C147        C  0.73273731  0.76258329  0.74605323    -0.18200
C148        C  0.75577312  0.76215574  0.72660080     0.02300
C149        C  0.77705958  0.74112289  0.72968265     0.02300
C150        C  0.77583913  0.72225404  0.75323202    -0.18200
H151        H  0.79225538  0.70621277  0.75557729     0.04400
H152        H  0.71637485  0.77869087  0.74377102     0.04400
C153        C  0.27089107  0.74900663  0.22468646     0.02300
C154        C  0.25078643  0.72663621  0.22550906     0.02300
C155        C  0.23033378  0.72598896  0.24777869    -0.18200
C156        C  0.22942610  0.74702673  0.26929694     0.02300
C157        C  0.24916004  0.76964000  0.26835257     0.02300
C158        C  0.26964769  0.77030539  0.24606443    -0.18200
H159        H  0.28495119  0.78748714  0.24550416     0.04400
H160        H  0.21516907  0.70868376  0.24859968     0.04400
C161        C  0.28385586  0.75827978  0.77085270     0.02300
C162        C  0.26479720  0.73526435  0.76842246     0.02300
C163        C  0.24506783  0.73492221  0.74550683    -0.18200
C164        C  0.24411627  0.75678520  0.72466317     0.02300
C165        C  0.26340903  0.77986984  0.72711818     0.02300
C166        C  0.28312353  0.78006942  0.75011077    -0.18200
H167        H  0.29755161  0.79785473  0.75243899     0.04400
H168        H  0.23076740  0.71700819  0.74346274     0.04400
C169        C  0.24633804  0.27025420  0.76821443     0.02300
C170        C  0.27087059  0.25306545  0.76490527     0.02300
C171        C  0.27212156  0.23335888  0.74205826    -0.18200
C172        C  0.24911532  0.22987289  0.72291326     0.02300
C173        C  0.22464343  0.24714747  0.72616142     0.02300
C174        C  0.22350315  0.26698139  0.74885760    -0.18200
H175        H  0.20490936  0.28049530  0.75104625     0.04400
H176        H  0.29064438  0.21973853  0.73996215     0.04400
C177        C  0.05594701  0.25366631  0.56339260    -0.03100
C178        C  0.07247430  0.27827820  0.56662611    -0.05700
C179        C  0.09542359  0.27875534  0.58594389    -0.20800
C180        C  0.10204639  0.25487702  0.60283241     0.24900
C181        C  0.08545813  0.23024260  0.59975399    -0.18400
C182        C  0.06266988  0.22964837  0.58016231    -0.08300
C183        C  0.12706229  0.25606293  0.62248714    -0.18600
C184        C  0.12911826  0.24067818  0.64706636    -0.23400
C185        C  0.15395426  0.24259679  0.66688992     0.27000
C186        C  0.14990557  0.23804939  0.69679400    -0.20200
C187        C  0.17283913  0.23979638  0.71608618    -0.09800
C188        C  0.20033787  0.24550752  0.70568364    -0.10400
C189        C  0.20453979  0.24971045  0.67574310    -0.03300
C190        C  0.18157255  0.24824039  0.65647370    -0.18400
H191        H  0.06796850  0.29707101  0.55387497     0.10700
H192        H  0.10802061  0.29789651  0.58776893     0.10700
H193        H  0.09043405  0.21119869  0.61187848     0.10400
H194        H  0.05040568  0.21033618  0.57804451     0.11500
H195        H  0.14359858  0.27133945  0.61731771     0.11600
H196        H  0.11132632  0.22757816  0.65389476     0.13500
H197        H  0.12887558  0.23345448  0.70527533     0.10000
H198        H  0.16922376  0.23637220  0.73910950     0.12100
H199        H  0.22561756  0.25417641  0.66732052     0.08700
H200        H  0.18556453  0.25109227  0.63345403     0.11500
C201        C  0.05162894  0.24552379  0.43810698    -0.03100
C202        C  0.06894167  0.22126164  0.43628736    -0.05700
C203        C  0.09004510  0.21918731  0.41490766    -0.20800
C204        C  0.09378837  0.24094726  0.39445880     0.24900
C205        C  0.07639780  0.26521626  0.39615507    -0.18400
C206        C  0.05563868  0.26754094  0.41790863    -0.08300
C207        C  0.11684192  0.23830353  0.37252013    -0.18600
C208        C  0.11494154  0.24942806  0.34560796    -0.23400
C209        C  0.13817886  0.24711838  0.32379656     0.27000
C210        C  0.13131390  0.24717073  0.29407048    -0.20200
C211        C  0.15277594  0.24602692  0.27297306    -0.09800
C212        C  0.18156385  0.24514074  0.28121600    -0.10400
C213        C  0.18847872  0.24558137  0.31095793    -0.03300
C214        C  0.16702398  0.24635820  0.33206103    -0.18400
H215        H  0.06649638  0.20407307  0.45172115     0.10700
H216        H  0.10338281  0.20043183  0.41420619     0.10700
H217        H  0.07924247  0.28268360  0.38114970     0.10400
H218        H  0.04264178  0.28651345  0.41885755     0.11500
H219        H  0.13532015  0.22561629  0.37830612     0.11600
H220        H  0.09523365  0.25957110  0.33884603     0.13500
H221        H  0.10926903  0.24802079  0.28716859     0.10000
H222        H  0.14693200  0.24588938  0.25016641     0.12100
H223        H  0.21052632  0.24577111  0.31785796     0.08700
H224        H  0.17310977  0.24724350  0.35475823     0.11500
C225        C  0.92729769  0.25126143  0.44156166    -0.03100
C226        C  0.91058358  0.27567040  0.43755368    -0.05700
C227        C  0.88876485  0.27601919  0.41695709    -0.20800
C228        C  0.88358400  0.25225521  0.39945786     0.24900
C229        C  0.90029760  0.22774671  0.40336561    -0.18400
C230        C  0.92187694  0.22722348  0.42438749    -0.08300
C231        C  0.85978648  0.25347659  0.37832737    -0.18600
C232        C  0.85957402  0.23891690  0.35315772    -0.23400
C233        C  0.83567074  0.24087056  0.33213488     0.27000
C234        C  0.84112456  0.23709433  0.30233723    -0.20200
C235        C  0.81890661  0.23830412  0.28209984    -0.09800
C236        C  0.79079646  0.24276977  0.29143576    -0.10400
C237        C  0.78529752  0.24669265  0.32118677    -0.03300
C238        C  0.80747711  0.24562322  0.34138881    -0.18400
H239        H  0.91413428  0.29443432  0.45062980     0.10700
H240        H  0.87599498  0.29502860  0.41452539     0.10700
H241        H  0.89635937  0.20882047  0.39069001     0.10400
H242        H  0.93443543  0.20811795  0.42707125     0.11500
H243        H  0.84260011  0.26824505  0.38296922     0.11600
H244        H  0.87806364  0.22640474  0.34700059     0.13500
H245        H  0.86263081  0.23325268  0.29471994     0.10000
H246        H  0.82352065  0.23510156  0.25922927     0.12100
H247        H  0.76373039  0.25017864  0.32879429     0.08700
H248        H  0.80237441  0.24786111  0.36424829     0.11500
C249        C  0.93096553  0.25818917  0.56822562    -0.03100
C250        C  0.92566314  0.28431298  0.58196846    -0.05700
C251        C  0.90547923  0.28637262  0.60429569    -0.20800
C252        C  0.88974109  0.26255444  0.61286706     0.24900
C253        C  0.89501035  0.23639729  0.59920741    -0.18400
C254        C  0.91550977  0.23421894  0.57720717    -0.08300
C255        C  0.86852987  0.26527749  0.63663948    -0.18600
C256        C  0.84374040  0.25104488  0.63636936    -0.23400
C257        C  0.82215742  0.25355400  0.65979092     0.27000
C258        C  0.79324848  0.25128095  0.65257326    -0.20200
C259        C  0.77238974  0.25208086  0.67425006    -0.09800
C260        C  0.78008624  0.25407310  0.70373779    -0.10400
C261        C  0.80903753  0.25680017  0.71096682    -0.03300
C262        C  0.82990796  0.25663331  0.68918811    -0.18400
H263        H  0.93729945  0.30314165  0.57565646     0.10700
H264        H  0.90189041  0.30668919  0.61466888     0.10700
H265        H  0.88364526  0.21751817  0.60585750     0.10400
H266        H  0.91917160  0.21376785  0.56716198     0.11500
H267        H  0.87268787  0.28052654  0.65383166     0.11600
H268        H  0.83838793  0.23812796  0.61757548     0.13500
H269        H  0.78679436  0.24896003  0.63006476     0.10000
H270        H  0.75020208  0.25072976  0.66799790     0.12100
H271        H  0.81554279  0.25834710  0.73352532     0.08700
H272        H  0.85209257  0.25792774  0.69544479     0.11500
C273        C  0.73615381  0.20782159  0.70656762    -0.03100
C274        C  0.71173322  0.20197768  0.69006322    -0.05700
C275        C  0.71140335  0.17918462  0.67064431    -0.20800
C276        C  0.73547989  0.16178623  0.66717550     0.24900
C277        C  0.75981516  0.16734049  0.68415922    -0.18400
C278        C  0.76008675  0.19012633  0.70367501    -0.08300
C279        C  0.73387450  0.13778458  0.64619605    -0.18600
C280        C  0.75684677  0.12552734  0.63372855    -0.23400
C281        C  0.75543775  0.10237326  0.61158693     0.27000
C282        C  0.78086798  0.08875040  0.60339620    -0.20200
C283        C  0.78091637  0.06751351  0.58211184    -0.09800
C284        C  0.75545461  0.05935326  0.56844799    -0.10400
C285        C  0.72998504  0.07285823  0.57664054    -0.03300
C286        C  0.72993104  0.09414816  0.59781123    -0.18400
H287        H  0.69298620  0.21526148  0.69201864     0.10700
H288        H  0.69230724  0.17528102  0.65805412     0.10700
H289        H  0.77846461  0.15391990  0.68295195     0.10400
H290        H  0.77893528  0.19386441  0.71669172     0.11500
H291        H  0.71267493  0.13083428  0.64036993     0.11600
H292        H  0.77792217  0.13304158  0.63949284     0.13500
H293        H  0.80086818  0.09462835  0.61345531     0.10000
H294        H  0.80092360  0.05752524  0.57634175     0.12100
H295        H  0.71000386  0.06719856  0.56643094     0.08700
H296        H  0.70982760  0.10421581  0.60267586     0.11500
C297        C  0.74392923  0.20084307  0.29618886    -0.03100
C298        C  0.72124389  0.20010956  0.31602192    -0.05700
C299        C  0.72083661  0.18002933  0.33838901    -0.20800
C300        C  0.74302785  0.16021182  0.34134444     0.24900
C301        C  0.76562443  0.16079187  0.32111854    -0.18400
C302        C  0.76605690  0.18098596  0.29883169    -0.08300
C303        C  0.74098830  0.13868641  0.36496689    -0.18600
C304        C  0.76303120  0.12268422  0.37418393    -0.23400
C305        C  0.76057156  0.10077890  0.39737136     0.27000
C306        C  0.78543983  0.09160252  0.41149092    -0.20200
C307        C  0.78425067  0.07077954  0.43311283    -0.09800
C308        C  0.75810023  0.05856834  0.44106635    -0.10400
C309        C  0.73321735  0.06745017  0.42671075    -0.03300
C310        C  0.73442056  0.08818728  0.40498856    -0.18400
H311        H  0.70398610  0.21529203  0.31433657     0.10700
H312        H  0.70308110  0.17998274  0.35346479     0.10700
H313        H  0.78272720  0.14545877  0.32188021     0.10400
H314        H  0.78355926  0.18099548  0.28345427     0.11500
H315        H  0.72050721  0.13669720  0.37570156     0.11600
H316        H  0.78411526  0.12629348  0.36530873     0.13500
H317        H  0.80589659  0.10068479  0.40586403     0.10000
H318        H  0.80383334  0.06433507  0.44367416     0.12100
H319        H  0.71278759  0.05817218  0.43205710     0.08700
H320        H  0.71487262  0.09379064  0.39396653     0.11500
C321        C  0.75304201  0.93409647  0.44281874    -0.03100
C322        C  0.72721890  0.92074175  0.43569177    -0.05700
C323        C  0.72670469  0.89817406  0.41598359    -0.20800
C324        C  0.75184404  0.88882715  0.40254030     0.24900
C325        C  0.77768873  0.90226078  0.40945142    -0.18400
C326        C  0.77827368  0.92461402  0.42945900    -0.08300
C327        C  0.75056209  0.86439806  0.38225903    -0.18600
C328        C  0.76803123  0.86171878  0.35919260    -0.23400
C329        C  0.76578677  0.83788278  0.33830082     0.27000
C330        C  0.77165938  0.84280319  0.30877651    -0.20200
C331        C  0.76940080  0.82085796  0.28847400    -0.09800
C332        C  0.76196899  0.79345680  0.29751871    -0.10400
C333        C  0.75661841  0.78830362  0.32710999    -0.03300
C334        C  0.75842169  0.81035335  0.34736636    -0.18400
H335        H  0.70742369  0.92742345  0.44569789     0.10700
H336        H  0.70657094  0.88804316  0.41111566     0.10700
H337        H  0.79754997  0.89510071  0.39997169     0.10400
H338        H  0.79852613  0.93434937  0.43459998     0.11500
H339        H  0.73353715  0.84911611  0.38537521     0.11600
H340        H  0.78308108  0.87851122  0.35424154     0.13500
H341        H  0.77756949  0.86378881  0.30135997     0.10000
H342        H  0.77370837  0.82514946  0.26572859     0.12100
H343        H  0.75089883  0.76724100  0.33445173     0.08700
H344        H  0.75443567  0.80577608  0.37010008     0.11500
C345        C  0.75096536  0.93482898  0.56764112    -0.03100
C346        C  0.72524738  0.92888438  0.58200377    -0.05700
C347        C  0.72359980  0.90668094  0.60205291    -0.20800
C348        C  0.74755066  0.88987171  0.60821560     0.24900
C349        C  0.77333998  0.89578506  0.59373803    -0.18400
C350        C  0.77503545  0.91816501  0.57384531    -0.08300
C351        C  0.74428603  0.86596483  0.62908779    -0.18600
C352        C  0.76629239  0.85259313  0.64199013    -0.23400
C353        C  0.76276195  0.82912446  0.66329153     0.27000
C354        C  0.78525533  0.82324746  0.68247597    -0.20200
C355        C  0.78292041  0.80155591  0.70300384    -0.09800
C356        C  0.75817935  0.78495608  0.70449381    -0.10400
C357        C  0.73571246  0.79054403  0.68521578    -0.03300
C358        C  0.73801280  0.81229092  0.66463854    -0.18400
H359        H  0.70631908  0.94134577  0.57769021     0.10700
H360        H  0.70344635  0.90256066  0.61273651     0.10700
H361        H  0.79213524  0.88293778  0.59704903     0.10400
H362        H  0.79506606  0.92201404  0.56283398     0.11500
H363        H  0.72269468  0.86009691  0.63490780     0.11600
H364        H  0.78783456  0.85994913  0.63818845     0.13500
H365        H  0.80458856  0.83573659  0.68183681     0.10000
H366        H  0.80037308  0.79787644  0.71794680     0.12100
H367        H  0.71653407  0.77783094  0.68588277     0.08700
H368        H  0.72055333  0.81544443  0.64965181     0.11500
C369        C  0.20855562  0.74411823  0.29326455    -0.03100
C370        C  0.21795154  0.74095380  0.32206167    -0.05700
C371        C  0.19829813  0.73853282  0.34476670    -0.20800
C372        C  0.16896130  0.73970742  0.33911632     0.24900
C373        C  0.15954724  0.74239337  0.31016856    -0.18400
C374        C  0.17923730  0.74441008  0.28740314    -0.08300
C375        C  0.14875267  0.73747685  0.36379266    -0.18600
C376        C  0.12366442  0.75129189  0.36430334    -0.23400
C377        C  0.10404291  0.75015212  0.38958337     0.27000
C378        C  0.08679111  0.77371704  0.39571498    -0.20200
C379        C  0.06807070  0.77332458  0.41939392    -0.09800
C380        C  0.06576521  0.74905361  0.43697119    -0.10400
C381        C  0.08266036  0.72526511  0.43053145    -0.03300
C382        C  0.10173297  0.72583552  0.40715451    -0.18400
H383        H  0.24051909  0.74034697  0.32691558     0.10700
H384        H  0.20600801  0.73618515  0.36685755     0.10700
H385        H  0.13704167  0.74257903  0.30507007     0.10400
H386        H  0.17164815  0.74657567  0.26525066     0.11500
H387        H  0.15568663  0.72580761  0.38291081     0.11600
H388        H  0.11814085  0.76538534  0.34646090     0.13500
H389        H  0.08802294  0.79258028  0.38231594     0.10000
H390        H  0.05507213  0.79185600  0.42367399     0.12100
H391        H  0.08121291  0.70623926  0.44364997     0.08700
H392        H  0.11420436  0.70704549  0.40255102     0.11500
C393        C  0.07303304  0.74188713  0.56481338    -0.03100
C394        C  0.08035411  0.71569287  0.57743021    -0.05700
C395        C  0.10159667  0.71409370  0.59871543    -0.20800
C396        C  0.11635546  0.73849379  0.60736497     0.24900
C397        C  0.10920608  0.76467483  0.59465849    -0.18400
C398        C  0.08770878  0.76635489  0.57367531    -0.08300
C399        C  0.13804242  0.73641312  0.63072949    -0.18600
C400        C  0.16144764  0.75282211  0.63124044    -0.23400
C401        C  0.18259079  0.75186262  0.65517971     0.27000
C402        C  0.21127948  0.75756967  0.64902107    -0.20200
C403        C  0.23145815  0.75830895  0.67137666    -0.09800
C404        C  0.22311567  0.75447924  0.70050580    -0.10400
C405        C  0.19441719  0.74845557  0.70662400    -0.03300
C406        C  0.17435245  0.74705794  0.68419519    -0.18400
H407        H  0.06938611  0.69646208  0.57117288     0.10700
H408        H  0.10659789  0.69373714  0.60838717     0.10700
H409        H  0.11970702  0.78398638  0.60143812     0.10400
H410        H  0.08249237  0.78686686  0.56450484     0.11500
H411        H  0.13513987  0.72027381  0.64734385     0.11600
H412        H  0.16579642  0.76686082  0.61302049     0.13500
H413        H  0.21809396  0.76136931  0.62682694     0.10000
H414        H  0.25353980  0.76227841  0.66595134     0.12100
H415        H  0.18740112  0.74546591  0.72888148     0.08700
H416        H  0.15227590  0.74320478  0.68971089     0.11500
C417        C  0.79978631  0.73756265  0.70762209    -0.03100
C418        C  0.79257034  0.73186949  0.67858553    -0.05700
C419        C  0.81377702  0.72935834  0.65741447    -0.20800
C420        C  0.84253708  0.73295842  0.66478156     0.24900
C421        C  0.84980643  0.73811663  0.69404367    -0.18400
C422        C  0.82855702  0.74024225  0.71532041    -0.08300
C423        C  0.86430691  0.73079749  0.64145144    -0.18600
C424        C  0.88898255  0.74526683  0.64203469    -0.23400
C425        C  0.90981448  0.74470299  0.61770460     0.27000
C426        C  0.92718752  0.76844950  0.61310028    -0.20200
C427        C  0.94675601  0.76892171  0.59016074    -0.09800
C428        C  0.94975563  0.74538022  0.57167182    -0.10400
C429        C  0.93283415  0.72131753  0.57666530    -0.03300
C430        C  0.91298986  0.72098700  0.59939721    -0.18400
H431        H  0.77046256  0.72947206  0.67232647     0.10700
H432        H  0.80767296  0.72510246  0.63510523     0.10700
H433        H  0.87183515  0.74021198  0.70059553     0.10400
H434        H  0.83448183  0.74447348  0.73768161     0.11500
H435        H  0.85877129  0.71866017  0.62219565     0.11600
H436        H  0.89316833  0.75969928  0.65993531     0.13500
H437        H  0.92533212  0.78686321  0.62706544     0.10000
H438        H  0.95970235  0.78766028  0.58704210     0.12100
H439        H  0.93478954  0.70280033  0.56287122     0.08700
H440        H  0.90051863  0.70200690  0.60281583     0.11500
C441        C  0.80022981  0.74330269  0.29903728    -0.03100
C442        C  0.80034465  0.72057277  0.31870013    -0.05700
C443        C  0.82150656  0.71855924  0.33999028    -0.20800
C444        C  0.84294447  0.73920555  0.34205155     0.24900
C445        C  0.84324343  0.76155372  0.32169299    -0.18400
C446        C  0.82201321  0.76358056  0.30046793    -0.08300
C447        C  0.86483066  0.73620680  0.36526400    -0.18600
C448        C  0.88079090  0.75789747  0.37518376    -0.23400
C449        C  0.90232017  0.75508096  0.39882181     0.27000
C450        C  0.91203090  0.77975044  0.41273426    -0.20200
C451        C  0.93259165  0.77824524  0.43470609    -0.09800
C452        C  0.94401406  0.75196821  0.44321913    -0.10400
C453        C  0.93439267  0.72726752  0.42926978    -0.03300
C454        C  0.91393242  0.72877375  0.40722978    -0.18400
H455        H  0.78376212  0.70465821  0.31786042     0.10700
H456        H  0.82092896  0.70096977  0.35515112     0.10700
H457        H  0.85993260  0.77730987  0.32173582     0.10400
H458        H  0.82258558  0.78097037  0.28506876     0.11500
H459        H  0.86658811  0.71556078  0.37547498     0.11600
H460        H  0.87719855  0.77904120  0.36664035     0.13500
H461        H  0.90367156  0.80031572  0.40657758     0.10000
H462        H  0.93964772  0.79770211  0.44489422     0.12100
H463        H  0.94300115  0.70671419  0.43506293     0.08700
H464        H  0.90788071  0.70928622  0.39656475     0.11500
C465        C  0.22871656  0.20193666  0.28086060    -0.03100
C466        C  0.20611642  0.18289325  0.28493860    -0.05700
C467        C  0.20768461  0.16194426  0.30648149    -0.20800
C468        C  0.23196459  0.15936772  0.32419590     0.24900
C469        C  0.25461569  0.17851459  0.31996660    -0.18400
C470        C  0.25304701  0.19937893  0.29838296    -0.08300
C471        C  0.23236012  0.13716015  0.34735905    -0.18600
C472        C  0.25640924  0.12766289  0.36022959    -0.23400
C473        C  0.25740330  0.10562645  0.38355818     0.27000
C474        C  0.28400930  0.09407268  0.39107656    -0.20200
C475        C  0.28638975  0.07364429  0.41301591    -0.09800
C476        C  0.26215244  0.06418081  0.42807027    -0.10400
C477        C  0.23549803  0.07584403  0.42079659    -0.03300
C478        C  0.23311764  0.09641623  0.39891968    -0.18400
H479        H  0.18718811  0.18437128  0.27155686     0.10700
H480        H  0.18984649  0.14767064  0.30930853     0.10700
H481        H  0.27333502  0.17806636  0.33362535     0.10400
H482        H  0.27059277  0.21405289  0.29581685     0.11500
H483        H  0.21205837  0.12778537  0.35306674     0.11600
H484        H  0.27678416  0.13564964  0.35277489     0.13500
H485        H  0.30313167  0.10084519  0.37985892     0.10000
H486        H  0.30725861  0.06517746  0.41808541     0.12100
H487        H  0.21642495  0.06922276  0.43217746     0.08700
H488        H  0.21226725  0.10514673  0.39457719     0.11500
C489        C  0.27050326  0.06603208  0.55513755    -0.03100
C490        C  0.29643451  0.07653498  0.56589869    -0.05700
C491        C  0.29674118  0.09791043  0.58699023    -0.20800
C492        C  0.27120250  0.10922890  0.59791665     0.24900
C493        C  0.24521759  0.09886559  0.58692833    -0.18400
C494        C  0.24491694  0.07740981  0.56593947    -0.08300
C495        C  0.27267041  0.13239331  0.61990286    -0.18600
C496        C  0.25077622  0.13955364  0.63745016    -0.23400
C497        C  0.25171541  0.16275743  0.65941154     0.27000
C498        C  0.23007977  0.16382615  0.68051814    -0.20200
C499        C  0.22940549  0.18547814  0.70120857    -0.09800
C500        C  0.25025702  0.20672175  0.70112905    -0.10400
C501        C  0.27206345  0.20575125  0.68026876    -0.03300
C502        C  0.27271444  0.18411178  0.65942239    -0.18400
H503        H  0.31653819  0.06825642  0.55802013     0.10700
H504        H  0.31705711  0.10560739  0.59484851     0.10700
H505        H  0.22501643  0.10754960  0.59388558     0.10400
H506        H  0.22457642  0.06997819  0.55790771     0.11500
H507        H  0.29297071  0.14304978  0.62226277     0.11600
H508        H  0.23130586  0.12725853  0.63660591     0.13500
H509        H  0.21358455  0.14780196  0.68102831     0.10000
H510        H  0.21256018  0.18568074  0.71733407     0.12100
H511        H  0.28825829  0.22207219  0.67979916     0.08700
H512        H  0.28936291  0.18466843  0.64318579     0.11500
C513        C  0.27587917  0.94290582  0.55745850    -0.03100
C514        C  0.30252591  0.93418023  0.56820514    -0.05700
C515        C  0.30432187  0.91381826  0.59033400    -0.20800
C516        C  0.27958591  0.90187753  0.60239695     0.24900
C517        C  0.25293219  0.91045553  0.59144229    -0.18400
C518        C  0.25113904  0.93078217  0.56935422    -0.08300
C519        C  0.28246415  0.87957923  0.62521474    -0.18600
C520        C  0.26160920  0.87311983  0.64436263    -0.23400
C521        C  0.26320816  0.84977182  0.66625116     0.27000
C522        C  0.23797171  0.84141404  0.68032207    -0.20200
C523        C  0.23800924  0.81912198  0.70041127    -0.09800
C524        C  0.26327714  0.80436979  0.70663764    -0.10400
C525        C  0.28871139  0.81323512  0.69335883    -0.03300
C526        C  0.28875803  0.83570685  0.67346292    -0.18400
H527        H  0.32201526  0.94304069  0.55949612     0.10700
H528        H  0.32513834  0.90740810  0.59811738     0.10700
H529        H  0.23336619  0.90110804  0.59927303     0.10400
H530        H  0.23028049  0.93680818  0.56140606     0.11500
H531        H  0.30255678  0.86828783  0.62589551     0.11600
H532        H  0.24188849  0.88511560  0.64376032     0.13500
H533        H  0.21802407  0.85200630  0.67553969     0.10000
H534        H  0.21822495  0.81320632  0.71089556     0.12100
H535        H  0.30856078  0.80244652  0.69809244     0.08700
H536        H  0.30890017  0.84180824  0.66401308     0.11500
C537        C  0.26815748  0.93986285  0.43045826    -0.03100
C538        C  0.29373628  0.92868740  0.41945050    -0.05700
C539        C  0.29341836  0.90680293  0.39893320    -0.20800
C540        C  0.26759375  0.89548456  0.38878201     0.24900
C541        C  0.24191659  0.90676135  0.39981731    -0.18400
C542        C  0.24225960  0.92866711  0.42037271    -0.08300
C543        C  0.26887099  0.87216735  0.36678671    -0.18600
C544        C  0.24599052  0.85925459  0.35496054    -0.23400
C545        C  0.24780278  0.83633422  0.33264651     0.27000
C546        C  0.22335800  0.83000788  0.31626113    -0.20200
C547        C  0.22383768  0.80861667  0.29520139    -0.09800
C548        C  0.24872996  0.79281269  0.29026341    -0.10400
C549        C  0.27319880  0.79896518  0.30657208    -0.03300
C550        C  0.27274916  0.82033944  0.32769136    -0.18400
H551        H  0.31408382  0.93675904  0.42677573     0.10700
H552        H  0.31355468  0.89865099  0.39096440     0.10700
H553        H  0.22140496  0.89898567  0.39291572     0.10400
H554        H  0.22215873  0.93681529  0.42840729     0.11500
H555        H  0.28997566  0.86590659  0.35966510     0.11600
H556        H  0.22475152  0.86604580  0.36095284     0.13500
H557        H  0.20380988  0.84179575  0.31964230     0.10000
H558        H  0.20475615  0.80440507  0.28270830     0.12100
H559        H  0.29253840  0.78681211  0.30331998     0.08700
H560        H  0.29184394  0.82370638  0.34031974     0.11500
C561        C  0.74503299  0.28429722  0.20368280    -0.03100
C562        C  0.74271885  0.27626811  0.17434776    -0.05700
C563        C  0.74148132  0.29683250  0.15246394    -0.20800
C564        C  0.74325331  0.32575000  0.15940121     0.24900
C565        C  0.74623474  0.33374797  0.18875715    -0.18400
C566        C  0.74717638  0.31317859  0.21065709    -0.08300
C567        C  0.74061753  0.34701584  0.13571611    -0.18600
C568        C  0.75273352  0.37281838  0.13695499    -0.23400
C569        C  0.75027752  0.39384371  0.11307154     0.27000
C570        C  0.77297329  0.41247419  0.10796542    -0.20200
C571        C  0.77134706  0.43265608  0.08574908    -0.09800
C572        C  0.74663148  0.43512699  0.06870904    -0.10400
C573        C  0.72362592  0.41688550  0.07418602    -0.03300
C574        C  0.72549341  0.39626266  0.09603163    -0.18400
H575        H  0.74142048  0.25408382  0.16843724     0.10700
H576        H  0.73913431  0.29014802  0.13003679     0.10700
H577        H  0.74694161  0.35585526  0.19498120     0.10400
H578        H  0.74878776  0.31983132  0.23316246     0.11500
H579        H  0.72947871  0.34067764  0.11605326     0.11600
H580        H  0.76635185  0.37817728  0.15523213     0.13500
H581        H  0.79213954  0.41120498  0.12102172     0.10000
H582        H  0.78926487  0.44668034  0.08222615     0.12100
H583        H  0.70428167  0.41845115  0.06145296     0.08700
H584        H  0.70734560  0.38265970  0.09994315     0.11500
C585        C  0.74846076  0.70171410  0.21503714    -0.03100
C586        C  0.72200052  0.68831672  0.21165397    -0.05700
C587        C  0.71868536  0.66646430  0.19138137    -0.20800
C588        C  0.74182749  0.65719997  0.17444041     0.24900
C589        C  0.76846178  0.67042480  0.17820245    -0.18400
C590        C  0.77172050  0.69232376  0.19842218    -0.08300
C591        C  0.73689672  0.63483481  0.15213561    -0.18600
C592        C  0.75787783  0.61884987  0.14049033    -0.23400
C593        C  0.75380513  0.59729522  0.11706943     0.27000
C594        C  0.77784571  0.58234094  0.10715086    -0.20200
C595        C  0.77560509  0.56247444  0.08469650    -0.09800
C596        C  0.74915355  0.55689454  0.07168663    -0.10400
C597        C  0.72500424  0.57159610  0.08166094    -0.03300
C598        C  0.72725317  0.59164042  0.10397719    -0.18400
H599        H  0.70382940  0.69500553  0.22448028     0.10700
H600        H  0.69791903  0.65680310  0.18886021     0.10700
H601        H  0.78666720  0.66466973  0.16505014     0.10400
H602        H  0.79227654  0.70250423  0.20055778     0.11500
H603        H  0.71500711  0.63151192  0.14565208     0.11600
H604        H  0.77943195  0.62146720  0.14849997     0.13500
H605        H  0.79857786  0.58615839  0.11670355     0.10000
H606        H  0.79460556  0.55138814  0.07762334     0.12100
H607        H  0.70431807  0.56781269  0.07200919     0.08700
H608        H  0.70805545  0.60252476  0.11049549     0.11500
C609        C  0.75309197  0.70264120  0.79773995    -0.03100
C610        C  0.77660671  0.70093820  0.81645640    -0.05700
C611        C  0.77706520  0.68123225  0.83916383    -0.20800
C612        C  0.75405513  0.66274353  0.84371169     0.24900
C613        C  0.73048833  0.66438179  0.82475681    -0.18400
C614        C  0.73005735  0.68416802  0.80203749    -0.08300
C615        C  0.75634685  0.64138645  0.86754425    -0.18600
C616        C  0.73420846  0.62633871  0.87811907    -0.23400
C617        C  0.73668337  0.60431446  0.90134947     0.27000
C618        C  0.71155873  0.59354559  0.91375067    -0.20200
C619        C  0.71256515  0.57232880  0.93501815    -0.09800
C620        C  0.73879983  0.56125536  0.94438802    -0.10400
C621        C  0.76397922  0.57195268  0.93203778    -0.03300
C622        C  0.76299141  0.59311599  0.91072143    -0.18400
H623        H  0.79464799  0.71492943  0.81347848     0.10700
H624        H  0.79558225  0.68036306  0.85319309     0.10700
H625        H  0.71265283  0.65007576  0.82673057     0.10400
H626        H  0.71196254  0.68468254  0.78744096     0.11500
H627        H  0.77727420  0.63868121  0.87704600     0.11600
H628        H  0.71296932  0.63056322  0.86996064     0.13500
H629        H  0.69097976  0.60152784  0.90689006     0.10000
H630        H  0.69274838  0.56450113  0.94399628     0.12100
H631        H  0.78455411  0.56378736  0.93865780     0.08700
H632        H  0.78294891  0.60002799  0.90147304     0.11500
C633        C  0.73851341  0.29740979  0.79284258    -0.03100
C634        C  0.76284995  0.29933335  0.81036699    -0.05700
C635        C  0.76463048  0.31986149  0.83216965    -0.20800
C636        C  0.74221231  0.33908253  0.83693685     0.24900
C637        C  0.71790371  0.33741498  0.81896302    -0.18400
C638        C  0.71611262  0.31671574  0.79716942    -0.08300
C639        C  0.74571860  0.36054937  0.86050491    -0.18600
C640        C  0.72491447  0.37782899  0.87034609    -0.23400
C641        C  0.72904756  0.39864690  0.89439952     0.27000
C642        C  0.70494871  0.40903128  0.90906105    -0.20200
C643        C  0.70771901  0.42857288  0.93176500    -0.09800
C644        C  0.73472287  0.43835778  0.94028963    -0.10400
C645        C  0.75886398  0.42827310  0.92542972    -0.03300
C646        C  0.75609257  0.40878444  0.90264864    -0.18400
H647        H  0.78036441  0.28463054  0.80740677     0.10700
H648        H  0.78365294  0.32063766  0.84547698     0.10700
H649        H  0.70032557  0.35203832  0.82124340     0.10400
H650        H  0.69727530  0.31578788  0.78360483     0.11500
H651        H  0.76642387  0.36123309  0.87090359     0.11600
H652        H  0.70358506  0.37602933  0.86157474     0.13500
H653        H  0.68385134  0.40185819  0.90304546     0.10000
H654        H  0.68864482  0.43602615  0.94262387     0.12100
H655        H  0.77994399  0.43565090  0.93120560     0.08700
H656        H  0.77520207  0.40224218  0.89135700     0.11500
C657        C  0.57191579  0.74827939  0.06487178    -0.03100
C658        C  0.58787592  0.72339741  0.06925424    -0.05700
C659        C  0.61062140  0.72304755  0.08887004    -0.20800
C660        C  0.61760948  0.74735177  0.10491039     0.24900
C661        C  0.60162726  0.77226837  0.10062768    -0.18400
C662        C  0.57905838  0.77271753  0.08075839    -0.08300
C663        C  0.64218679  0.74618937  0.12519716    -0.18600
C664        C  0.64390948  0.76220419  0.14936673    -0.23400
C665        C  0.66772028  0.75963975  0.17040705     0.27000
C666        C  0.66226166  0.76420452  0.20005033    -0.20200
C667        C  0.68398348  0.76121687  0.22058954    -0.09800
C668        C  0.71173824  0.75403090  0.21182730    -0.10400
C669        C  0.71750763  0.75058334  0.18201671    -0.03300
C670        C  0.69565856  0.75313563  0.16148257    -0.18400
H671        H  0.58307806  0.70427577  0.05718889     0.10700
H672        H  0.62273481  0.70366049  0.09163663     0.10700
H673        H  0.60688937  0.79160987  0.11206570     0.10400
H674        H  0.56729403  0.79226525  0.07772817     0.11500
H675        H  0.65844892  0.73026804  0.12108609     0.11600
H676        H  0.62628315  0.77602793  0.15518461     0.13500
H677        H  0.64097590  0.76950660  0.20739637     0.10000
H678        H  0.67903747  0.76413586  0.24342971     0.12100
H679        H  0.73890721  0.74583698  0.17465093     0.08700
H680        H  0.70072818  0.75039414  0.13866575     0.11500
C681        C  0.44527799  0.74363050  0.06511258    -0.03100
C682        C  0.43569255  0.71694536  0.07448936    -0.05700
C683        C  0.41385701  0.71477449  0.09508408    -0.20800
C684        C  0.40091347  0.73915399  0.10667522     0.24900
C685        C  0.41065618  0.76591757  0.09742540    -0.18400
C686        C  0.43250317  0.76808155  0.07681579    -0.08300
C687        C  0.37827833  0.73559064  0.12914258    -0.18600
C688        C  0.35936308  0.75599629  0.13639221    -0.23400
C689        C  0.33694826  0.75310390  0.15930247     0.27000
C690        C  0.31897363  0.77641963  0.16459206    -0.20200
C691        C  0.29766898  0.77509857  0.18582954    -0.09800
C692        C  0.29375594  0.75036230  0.20229674    -0.10400
C693        C  0.31192965  0.72716312  0.19748817    -0.03300
C694        C  0.33314178  0.72836680  0.17613405    -0.18400
H695        H  0.44508630  0.69767891  0.06595580     0.10700
H696        H  0.40699667  0.69389854  0.10195031     0.10700
H697        H  0.40203209  0.78530249  0.10636929     0.10400
H698        H  0.43948263  0.78897416  0.07016405     0.11500
H699        H  0.37718985  0.71500415  0.13946614     0.11600
H700        H  0.35993017  0.77602105  0.12481954     0.13500
H701        H  0.32138468  0.79581148  0.15219398     0.10000
H702        H  0.28400522  0.79333110  0.18921099     0.12100
H703        H  0.30978194  0.70806152  0.21038418     0.08700
H704        H  0.34636020  0.70984426  0.17331564     0.11500
C705        C  0.44750320  0.75170558  0.93844048    -0.03100
C706        C  0.44694271  0.72975294  0.91783146    -0.05700
C707        C  0.42747479  0.73037793  0.89489502    -0.20800
C708        C  0.40772633  0.75258504  0.89242163     0.24900
C709        C  0.40810795  0.77454196  0.91317142    -0.18400
C710        C  0.42796883  0.77416129  0.93589178    -0.08300
C711        C  0.38797772  0.75259369  0.86723373    -0.18600
C712        C  0.36223051  0.76516520  0.86754869    -0.23400
C713        C  0.34250922  0.76386777  0.84235638     0.27000
C714        C  0.31302457  0.76433474  0.84738953    -0.20200
C715        C  0.29391850  0.76251176  0.82414467    -0.09800
C716        C  0.30402329  0.76063023  0.79545737    -0.10400
C717        C  0.33343843  0.76102937  0.79025856    -0.03300
C718        C  0.35256022  0.76254464  0.81349702    -0.18400
H719        H  0.46196715  0.71234365  0.91910537     0.10700
H720        H  0.42777689  0.71337250  0.87905133     0.10700
H721        H  0.39364329  0.79235021  0.91152854     0.10400
H722        H  0.42803482  0.79138247  0.95148096     0.11500
H723        H  0.39427957  0.74027622  0.84831803     0.11600
H724        H  0.35453389  0.77503856  0.88740565     0.13500
H725        H  0.30478430  0.76564245  0.86938045     0.10000
H726        H  0.27123770  0.76255294  0.82849271     0.12100
H727        H  0.34156053  0.75983311  0.76821446     0.08700
H728        H  0.37513769  0.76302919  0.80877541     0.11500
C729        C  0.70705533  0.74562484  0.78976067    -0.03100
C730        C  0.67938175  0.73919236  0.78044828    -0.05700
C731        C  0.65669656  0.73991719  0.80015807    -0.20800
C732        C  0.66122442  0.74777160  0.82925693     0.24900
C733        C  0.68896585  0.75472681  0.83837531    -0.18400
C734        C  0.71168846  0.75360489  0.81875472    -0.08300
C735        C  0.63706361  0.74667025  0.85001642    -0.18600
C736        C  0.63544266  0.76325586  0.87378822    -0.23400
C737        C  0.61224602  0.76074950  0.89554746     0.27000
C738        C  0.60413888  0.78472143  0.91161829    -0.20200
C739        C  0.58305992  0.78276687  0.93304972    -0.09800
C740        C  0.57005658  0.75661716  0.93919939    -0.10400
C741        C  0.57840355  0.73254924  0.92327920    -0.03300
C742        C  0.59923396  0.73458115  0.90164740    -0.18400
H743        H  0.67551710  0.73292155  0.75811778     0.10700
H744        H  0.63557456  0.73423314  0.79271350     0.10700
H745        H  0.69334307  0.76012823  0.86081793     0.10400
H746        H  0.73297156  0.75859541  0.82623815     0.11500
H747        H  0.61976536  0.73217192  0.84513289     0.11600
H748        H  0.65118326  0.77978681  0.87710144     0.13500
H749        H  0.61409439  0.80503778  0.90750527     0.10000
H750        H  0.57719108  0.80166532  0.94502804     0.12100
H751        H  0.56888110  0.71207343  0.92757297     0.08700
H752        H  0.60559433  0.71550357  0.89026726     0.11500
C753        C  0.24405448  0.56593820  0.05502250    -0.03100
C754        C  0.21870044  0.58129578  0.05923882    -0.05700
C755        C  0.21763899  0.60362427  0.07923389    -0.20800
C756        C  0.24165307  0.61063687  0.09586247     0.24900
C757        C  0.26700343  0.59521349  0.09177921    -0.18400
C758        C  0.26820032  0.57316474  0.07147953    -0.08300
C759        C  0.23995637  0.63473925  0.11651914    -0.18600
C760        C  0.25467724  0.63535585  0.14162044    -0.23400
C761        C  0.25258990  0.65909985  0.16265538     0.27000
C762        C  0.25574163  0.65336976  0.19244322    -0.20200
C763        C  0.25451432  0.67529584  0.21284146    -0.09800
C764        C  0.25078418  0.70345381  0.20373603    -0.10400
C765        C  0.24767543  0.70930745  0.17394237    -0.03300
C766        C  0.24855995  0.68731366  0.15353003    -0.18400
H767        H  0.19979421  0.57635233  0.04675594     0.10700
H768        H  0.19794314  0.61535163  0.08187264     0.10700
H769        H  0.28609841  0.60055364  0.10375748     0.10400
H770        H  0.28806821  0.56179004  0.06864854     0.11500
H771        H  0.22491364  0.65162508  0.11170657     0.11600
H772        H  0.26740857  0.61708537  0.14785926     0.13500
H773        H  0.25904232  0.63183587  0.19994586     0.10000
H774        H  0.25708041  0.67039097  0.23572893     0.12100
H775        H  0.24480188  0.73092143  0.16651726     0.08700
H776        H  0.24673679  0.69248327  0.13064899     0.11500
C777        C  0.24754160  0.44149426  0.05843719    -0.03100
C778        C  0.27286644  0.42786915  0.06686759    -0.05700
C779        C  0.27254489  0.40679078  0.08829863    -0.20800
C780        C  0.24696329  0.39878541  0.10186779     0.24900
C781        C  0.22166775  0.41290164  0.09385568    -0.18400
C782        C  0.22197001  0.43384023  0.07225522    -0.08300
C783        C  0.24786581  0.37606109  0.12447235    -0.18600
C784        C  0.22472638  0.36185984  0.13401516    -0.23400
C785        C  0.22568216  0.33850964  0.15590161     0.27000
C786        C  0.20208216  0.32033713  0.15815029    -0.20200
C787        C  0.20195354  0.29794122  0.17811090    -0.09800
C788        C  0.22548247  0.29319481  0.19625654    -0.10400
C789        C  0.24879712  0.31174854  0.19471534    -0.03300
C790        C  0.24893993  0.33420002  0.17479238    -0.18400
H791        H  0.29295058  0.43328818  0.05669843     0.10700
H792        H  0.29239537  0.39652368  0.09413688     0.10700
H793        H  0.20159513  0.40825549  0.10431217     0.10400
H794        H  0.20214678  0.44419984  0.06652826     0.11500
H795        H  0.26875782  0.37001495  0.13238651     0.11600
H796        H  0.20412053  0.36636203  0.12444580     0.13500
H797        H  0.18375663  0.32327698  0.14414947     0.10000
H798        H  0.18369615  0.28396390  0.17902809     0.12100
H799        H  0.26694112  0.30879460  0.20895631     0.08700
H800        H  0.26714550  0.34817723  0.17465096     0.11500
C801        C  0.25277436  0.43908906  0.93170510    -0.03100
C802        C  0.27927366  0.42819654  0.92286377    -0.05700
C803        C  0.28084159  0.40692424  0.90175825    -0.20800
C804        C  0.25602439  0.39593620  0.88903319     0.24900
C805        C  0.22946260  0.40705745  0.89767755    -0.18400
C806        C  0.22789697  0.42827597  0.91888203    -0.08300
C807        C  0.25903370  0.37368302  0.86625179    -0.18600
C808        C  0.23754399  0.35694580  0.85717312    -0.23400
C809        C  0.24068716  0.33484855  0.83424504     0.27000
C810        C  0.21960870  0.31386222  0.83190749    -0.20200
C811        C  0.22142674  0.29288823  0.81048717    -0.09800
C812        C  0.24442040  0.29246263  0.79098190    -0.10400
C813        C  0.26527179  0.31363772  0.79287958    -0.03300
C814        C  0.26343921  0.33467620  0.81420588    -0.18400
H815        H  0.29886483  0.43610795  0.93223798     0.10700
H816        H  0.30159176  0.39897656  0.89537770     0.10700
H817        H  0.20981468  0.39996982  0.88788055     0.10400
H818        H  0.20716038  0.43640905  0.92501823     0.11500
H819        H  0.28024371  0.37043294  0.85752180     0.11600
H820        H  0.21688317  0.35854876  0.86759185     0.13500
H821        H  0.20170155  0.31362502  0.84679212     0.10000
H822        H  0.20501455  0.27682256  0.80927238     0.12100
H823        H  0.28282544  0.31407375  0.77757241     0.08700
H824        H  0.27959596  0.35095069  0.81435983     0.11500
C825        C  0.24889589  0.56321522  0.92888959    -0.03100
C826        C  0.22349414  0.57096964  0.91482182    -0.05700
C827        C  0.22338761  0.59223206  0.89361571    -0.20800
C828        C  0.24859704  0.60636542  0.88586137     0.24900
C829        C  0.27411272  0.59856224  0.89995608    -0.18400
C830        C  0.27422556  0.57714615  0.92109525    -0.08300
C831        C  0.24677146  0.62950710  0.86373019    -0.18600
C832        C  0.26939816  0.64254605  0.85151273    -0.23400
C833        C  0.26711639  0.66596390  0.82975072     0.27000
C834        C  0.29142412  0.67321720  0.81350976    -0.20200
C835        C  0.29061787  0.69544097  0.79336093    -0.09800
C836        C  0.26550214  0.71108871  0.78915382    -0.10400
C837        C  0.24111365  0.70387944  0.80513836    -0.03300
C838        C  0.24190832  0.68173202  0.82540561    -0.18400
H839        H  0.20358832  0.56068225  0.92026653     0.10700
H840        H  0.20338672  0.59776283  0.88330777     0.10700
H841        H  0.29401626  0.60906391  0.89530940     0.10400
H842        H  0.29413842  0.57179459  0.93165444     0.11500
H843        H  0.22551986  0.63545268  0.85683556     0.11600
H844        H  0.29072617  0.63547860  0.85684223     0.13500
H845        H  0.31116157  0.66163016  0.81641710     0.10000
H846        H  0.30964116  0.70049073  0.78107037     0.12100
H847        H  0.22159502  0.71585940  0.80238280     0.08700
H848        H  0.22286954  0.67764962  0.83792048     0.11500
C849        C  0.42709551  0.25107897  0.06479466    -0.03100
C850        C  0.42387662  0.22625165  0.08138155    -0.05700
C851        C  0.40284390  0.22447829  0.10281346    -0.20800
C852        C  0.38414013  0.24717492  0.10765583     0.24900
C853        C  0.38725980  0.27208798  0.09111957    -0.18400
C854        C  0.40868950  0.27407568  0.06999596    -0.08300
C855        C  0.36226639  0.24450550  0.13076417    -0.18600
C856        C  0.33620235  0.25617136  0.12855565    -0.23400
C857        C  0.31403772  0.25269792  0.15131732     0.27000
C858        C  0.28527096  0.25258775  0.14311018    -0.20200
C859        C  0.26385201  0.25020707  0.16410654    -0.09800
C860        C  0.27077736  0.24873961  0.19382814    -0.10400
C861        C  0.29956348  0.24851038  0.20205943    -0.03300
C862        C  0.32101984  0.25049268  0.18102436    -0.18400
H863        H  0.43785997  0.20825823  0.07804208     0.10700
H864        H  0.40096642  0.20518089  0.11545919     0.10700
H865        H  0.37353023  0.29018956  0.09486086     0.10400
H866        H  0.41073682  0.29351430  0.05762261     0.11500
H867        H  0.36715815  0.23090448  0.14918580     0.11600
H868        H  0.33033708  0.26726504  0.10870479     0.13500
H869        H  0.27937432  0.25423960  0.12037684     0.10000
H870        H  0.24181102  0.24992269  0.15718090     0.12100
H871        H  0.30540724  0.24756038  0.22484505     0.08700
H872        H  0.34297685  0.25115468  0.18813855     0.11500
C873        C  0.69727108  0.24271439  0.20933059    -0.03100
C874        C  0.69107486  0.21799339  0.19366872    -0.05700
C875        C  0.66899464  0.21774330  0.17331298    -0.20800
C876        C  0.65251937  0.24214687  0.16816411     0.24900
C877        C  0.65827605  0.26675246  0.18457500    -0.18400
C878        C  0.68044024  0.26696383  0.20494135    -0.08300
C879        C  0.62964173  0.24052646  0.14570113    -0.18600
C880        C  0.61478565  0.26294708  0.13547934    -0.23400
C881        C  0.59256598  0.26085749  0.11236218     0.27000
C882        C  0.58373695  0.28577425  0.09818427    -0.20200
C883        C  0.56306177  0.28491381  0.07626699    -0.09800
C884        C  0.55073180  0.25903716  0.06797412    -0.10400
C885        C  0.55925313  0.23413688  0.08235202    -0.03300
C886        C  0.57971303  0.23501400  0.10442449    -0.18400
H887        H  0.70373365  0.19901371  0.19679639     0.10700
H888        H  0.66498229  0.19841213  0.16127916     0.10700
H889        H  0.64583363  0.28586618  0.18208968     0.10400
H890        H  0.68457435  0.28612161  0.21721408     0.11500
H891        H  0.62587284  0.21975805  0.13643105     0.11600
H892        H  0.61967215  0.28405053  0.14326889     0.13500
H893        H  0.59302402  0.30601558  0.10394709     0.10000
H894        H  0.55692060  0.30449238  0.06565214     0.12100
H895        H  0.54987471  0.21390110  0.07675199     0.08700
H896        H  0.58490864  0.21537739  0.11530549     0.11500
C897        C  0.55466158  0.25915348  0.94163334    -0.03100
C898        C  0.57013146  0.28435120  0.93769068    -0.05700
C899        C  0.59264456  0.28545760  0.91778941    -0.20800
C900        C  0.59963599  0.26166807  0.90094078     0.24900
C901        C  0.58414935  0.23645825  0.90478086    -0.18400
C902        C  0.56198136  0.23517977  0.92506871    -0.08300
C903        C  0.62369321  0.26339086  0.88015763    -0.18600
C904        C  0.62338982  0.24994211  0.85437027    -0.23400
C905        C  0.64710637  0.25197751  0.83323192     0.27000
C906        C  0.64096450  0.25166146  0.80337882    -0.20200
C907        C  0.66290919  0.25300960  0.78288383    -0.09800
C908        C  0.69146513  0.25420924  0.79188397    -0.10400
C909        C  0.69766904  0.25384504  0.82179939    -0.03300
C910        C  0.67567890  0.25302355  0.84232297    -0.18400
H911        H  0.56512231  0.30309238  0.95032108     0.10700
H912        H  0.60445694  0.30502321  0.91531928     0.10700
H913        H  0.58951716  0.21757682  0.89254036     0.10400
H914        H  0.55050780  0.21544675  0.92772225     0.11500
H915        H  0.64128562  0.27740843  0.88545302     0.11600
H916        H  0.60444758  0.23840620  0.84777625     0.13500
H917        H  0.61910505  0.25061569  0.79591873     0.10000
H918        H  0.65761760  0.25309359  0.75993543     0.12100
H919        H  0.71953584  0.25386613  0.82927387     0.08700
H920        H  0.68105896  0.25244497  0.86522865     0.11500
C921        C  0.29459456  0.25401744  0.78611339    -0.03100
C922        C  0.32226357  0.26088249  0.77700942    -0.05700
C923        C  0.34442018  0.26259943  0.79728956    -0.20800
C924        C  0.33939870  0.25682328  0.82683688     0.24900
C925        C  0.31165276  0.24973926  0.83584134    -0.18400
C926        C  0.28948934  0.24833734  0.81563688    -0.08300
C927        C  0.36311409  0.25946266  0.84800206    -0.18600
C928        C  0.36469633  0.24353158  0.87226137    -0.23400
C929        C  0.38784780  0.24629988  0.89402199     0.27000
C930        C  0.39558754  0.22246949  0.91047445    -0.20200
C931        C  0.41657807  0.22443242  0.93191032    -0.09800
C932        C  0.42990860  0.25047099  0.93777931    -0.10400
C933        C  0.42195161  0.27446137  0.92151623    -0.03300
C934        C  0.40119983  0.27239081  0.89974761    -0.18400
H935        H  0.32655266  0.26541345  0.75431028     0.10700
H936        H  0.36555906  0.26831365  0.78989068     0.10700
H937        H  0.30686978  0.24590879  0.85855211     0.10400
H938        H  0.26825943  0.24297476  0.82304455     0.11500
H939        H  0.38025753  0.27405408  0.84282535     0.11600
H940        H  0.34908387  0.22691289  0.87580538     0.13500
H941        H  0.38540093  0.20221625  0.90665774     0.10000
H942        H  0.42208236  0.20559607  0.94417631     0.12100
H943        H  0.43175524  0.29483587  0.92561578     0.08700
H944        H  0.39516348  0.29134420  0.88796908     0.11500
loop_ 
_geom_bond_atom_site_label_1 
_geom_bond_atom_site_label_2 
_geom_bond_distance 
_geom_bond_site_symmetry_2 
_ccdc_geom_bond_type 
O1           Cu9   2.004   1_556  S
O1           C11   1.278       .  A
O2           Cu9   2.005       .  S
O2           C12   1.278       .  A
O3           Cu9   2.004       .  S
O3           C13   1.278       .  A
O4           Cu9   2.009   1_556  S
O4           C14   1.278       .  A
O5          Cu10   2.008   1_556  S
O5           C14   1.278       .  A
O6          Cu10   2.015       .  S
O6           C13   1.279       .  A
O7          Cu10   2.017       .  S
O7           C12   1.279       .  A
O8          Cu10   2.017   1_556  S
O8           C11   1.279       .  A
Cu9         Cu10   2.371       .  S
C11         C932   1.481       .  S
C12         C884   1.482       .  S
C13         C849   1.480       .  S
C14         C897   1.479       .  S
O15         Cu23   2.011       .  S
O15          C25   1.279       .  A
O16         Cu23   2.014   1_554  S
O16          C26   1.279       .  A
O17         Cu23   2.010   1_554  S
O17          C27   1.278       .  A
O18         Cu23   2.011       .  S
O18          C28   1.279       .  A
O19         Cu24   2.007       .  S
O19          C28   1.278       .  A
O20         Cu24   2.008   1_554  S
O20          C27   1.278       .  A
O21         Cu24   2.012   1_554  S
O21          C26   1.279       .  A
O22         Cu24   2.016       .  S
O22          C25   1.279       .  A
Cu23        Cu24   2.370       .  S
C25         C825   1.484       .  S
C26         C777   1.484       .  S
C27         C753   1.480       .  S
C28         C801   1.481       .  S
O29         Cu37   2.013   1_556  S
O29          C39   1.279       .  A
O30         Cu37   2.008       .  S
O30          C40   1.278       .  A
O31         Cu37   2.013       .  S
O31          C41   1.279       .  A
O32         Cu37   2.013   1_556  S
O32          C42   1.278       .  A
O33         Cu38   2.003   1_556  S
O33          C42   1.278       .  A
O34         Cu38   2.008       .  S
O34          C41   1.278       .  A
O35         Cu38   2.013       .  S
O35          C40   1.279       .  A
O36         Cu38   2.005   1_556  S
O36          C39   1.278       .  A
Cu37        Cu38   2.371       .  S
C39         C740   1.480       .  S
C40         C681   1.483       .  S
C41         C657   1.482       .  S
C42         C705   1.476       .  S
O43         Cu51   2.018   1_556  S
O43          C53   1.280       .  A
O44         Cu51   2.011       .  S
O44          C54   1.279       .  A
O45         Cu51   2.005       .  S
O45          C55   1.278       .  A
O46         Cu51   2.008   1_556  S
O46          C56   1.278       .  A
O47         Cu52   2.015   1_556  S
O47          C56   1.279       .  A
O48         Cu52   2.016       .  S
O48          C55   1.279       .  A
O49         Cu52   2.010       .  S
O49          C54   1.278       .  A
O50         Cu52   2.006   1_556  S
O50          C53   1.278       .  A
Cu51        Cu52   2.371       .  S
C53         C644   1.483       .  S
C54         C596   1.481       .  S
C55         C572   1.478       .  S
C56         C620   1.484       .  S
O57         Cu65   2.012       .  S
O57          C67   1.278       .  A
O58         Cu65   2.011   1_565  S
O58          C68   1.279       .  A
O59         Cu65   2.010       .  S
O59          C69   1.279       .  A
O60         Cu65   2.013   1_565  S
O60          C70   1.279       .  A
O61         Cu66   2.012   1_565  S
O61          C70   1.279       .  A
O62         Cu66   2.011       .  S
O62          C69   1.278       .  A
O63         Cu66   2.017   1_565  S
O63          C68   1.279       .  A
O64         Cu66   2.018       .  S
O64          C67   1.280       .  A
Cu65        Cu66   2.369       .  S
C67         C476   1.485       .  S
C68         C513   1.485       .  S
C69         C489   1.482       .  S
C70         C537   1.484       .  S
O71         Cu79   2.008   1_655  S
O71          C81   1.278       .  A
O72         Cu79   2.007       .  S
O72          C82   1.278       .  A
O73         Cu79   2.012   1_655  S
O73          C83   1.279       .  A
O74         Cu79   2.013       .  S
O74          C84   1.279       .  A
O75         Cu80   2.008       .  S
O75          C84   1.278       .  A
O76         Cu80   2.008   1_655  S
O76          C83   1.278       .  A
O77         Cu80   2.010       .  S
O77          C82   1.278       .  A
O78         Cu80   2.011   1_655  S
O78          C81   1.278       .  A
Cu79        Cu80   2.370       .  S
C81         C428   1.480       .  S
C82         C380   1.477       .  S
C83         C452   1.482       .  S
C84         C393   1.482       .  S
O85         Cu93   2.017   1_545  S
O85          C95   1.279       .  A
O86         Cu93   2.014       .  S
O86          C96   1.279       .  A
O87         Cu93   2.008   1_545  S
O87          C97   1.278       .  A
O88         Cu93   2.008       .  S
O88          C98   1.278       .  A
O89         Cu94   2.006       .  S
O89          C98   1.278       .  A
O90         Cu94   2.009   1_545  S
O90          C97   1.278       .  A
O91         Cu94   2.008       .  S
O91          C96   1.278       .  A
O92         Cu94   2.008   1_545  S
O92          C95   1.278       .  A
Cu93        Cu94   2.370       .  S
C95         C284   1.484       .  S
C96         C321   1.482       .  S
C97         C308   1.481       .  S
C98         C345   1.479       .  S
O99        Cu107   2.013   1_455  S
O99         C109   1.279       .  A
O100       Cu107   2.012       .  S
O100        C110   1.279       .  A
O101       Cu107   2.003   1_455  S
O101        C111   1.278       .  A
O102       Cu107   1.999       .  S
O102        C112   1.277       .  A
O103       Cu108   2.016       .  S
O103        C112   1.279       .  A
O104       Cu108   2.013   1_455  S
O104        C111   1.279       .  A
O105       Cu108   2.012       .  S
O105        C110   1.279       .  A
O106       Cu108   2.008   1_455  S
O106        C109   1.278       .  A
Cu107      Cu108   2.370       .  S
C109        C201   1.479       .  S
C110        C249   1.482       .  S
C111        C177   1.480       .  S
C112        C225   1.477       .  S
C113        C788   1.486       .  S
C113        C114   1.416       .  A
C113        C118   1.403       .  A
C114        C860   1.487       .  S
C114        C115   1.405       .  A
C115        C116   1.405       .  A
C115        H120   1.084       .  S
C116        C465   1.487       .  S
C116        C117   1.418       .  A
C117        C212   1.487       .  S
C117        C118   1.406       .  A
C118        H119   1.084       .  S
C121        C873   1.484       .  S
C121        C122   1.418       .  A
C121        C126   1.403       .  A
C122        C561   1.484       .  S
C122        C123   1.405       .  A
C123        C124   1.403       .  A
C123        H128   1.084       .  S
C124        C236   1.481       .  S
C124        C125   1.414       .  A
C125        C297   1.482       .  S
C125        C126   1.402       .  A
C126        H127   1.085       .  S
C129        C908   1.485       .  S
C129        C130   1.416       .  A
C129        C134   1.404       .  A
C130        C633   1.484       .  S
C130        C131   1.405       .  A
C131        C132   1.406       .  A
C131        H136   1.084       .  S
C132        C260   1.489       .  S
C132        C133   1.418       .  A
C133        C273   1.487       .  S
C133        C134   1.403       .  A
C134        H135   1.085       .  S
C137        C668   1.486       .  S
C137        C138   1.419       .  A
C137        C142   1.404       .  A
C138        C585   1.485       .  S
C138        C139   1.405       .  A
C139        C140   1.403       .  A
C139        H144   1.085       .  S
C140        C441   1.482       .  S
C140        C141   1.412       .  A
C141        C332   1.480       .  S
C141        C142   1.401       .  A
C142        H143   1.085       .  S
C145        C609   1.485       .  S
C145        C146   1.415       .  A
C145        C150   1.404       .  A
C146        C729   1.477       .  S
C146        C147   1.402       .  A
C147        C148   1.402       .  A
C147        H152   1.085       .  S
C148        C356   1.483       .  S
C148        C149   1.414       .  A
C149        C417   1.480       .  S
C149        C150   1.402       .  A
C150        H151   1.085       .  S
C153        C692   1.488       .  S
C153        C154   1.418       .  A
C153        C158   1.406       .  A
C154        C764   1.482       .  S
C154        C155   1.403       .  A
C155        C156   1.401       .  A
C155        H160   1.085       .  S
C156        C369   1.480       .  S
C156        C157   1.415       .  A
C157        C548   1.486       .  S
C157        C158   1.405       .  A
C158        H159   1.084       .  S
C161        C716   1.479       .  S
C161        C162   1.413       .  A
C161        C166   1.402       .  A
C162        C836   1.486       .  S
C162        C163   1.403       .  A
C163        C164   1.408       .  A
C163        H168   1.084       .  S
C164        C404   1.489       .  S
C164        C165   1.422       .  A
C165        C524   1.490       .  S
C165        C166   1.405       .  A
C166        H167   1.085       .  S
C169        C812   1.483       .  S
C169        C170   1.415       .  A
C169        C174   1.402       .  A
C170        C921   1.481       .  S
C170        C171   1.403       .  A
C171        C172   1.403       .  A
C171        H176   1.085       .  S
C172        C500   1.482       .  S
C172        C173   1.415       .  A
C173        C188   1.482       .  S
C173        C174   1.402       .  A
C174        H175   1.085       .  S
C177        C178   1.406       .  A
C177        C182   1.405       .  A
C178        C179   1.397       .  A
C178        H191   1.083       .  S
C179        C180   1.402       .  A
C179        H192   1.084       .  S
C180        C181   1.407       .  A
C180        C183   1.483       .  S
C181        C182   1.399       .  A
C181        H193   1.082       .  S
C182        H194   1.083       .  S
C183        C184   1.345       .  D
C183        H195   1.086       .  S
C184        C185   1.483       .  S
C184        H196   1.086       .  S
C185        C186   1.403       .  A
C185        C190   1.408       .  A
C186        C187   1.398       .  A
C186        H197   1.083       .  S
C187        C188   1.403       .  A
C187        H198   1.083       .  S
C188        C189   1.403       .  A
C189        C190   1.397       .  A
C189        H199   1.083       .  S
C190        H200   1.082       .  S
C201        C202   1.405       .  A
C201        C206   1.405       .  A
C202        C203   1.398       .  A
C202        H215   1.083       .  S
C203        C204   1.402       .  A
C203        H216   1.083       .  S
C204        C205   1.407       .  A
C204        C207   1.483       .  S
C205        C206   1.399       .  A
C205        H217   1.082       .  S
C206        H218   1.083       .  S
C207        C208   1.346       .  D
C207        H219   1.086       .  S
C208        C209   1.485       .  S
C208        H220   1.086       .  S
C209        C210   1.403       .  A
C209        C214   1.407       .  A
C210        C211   1.398       .  A
C210        H221   1.083       .  S
C211        C212   1.404       .  A
C211        H222   1.083       .  S
C212        C213   1.405       .  A
C213        C214   1.398       .  A
C213        H223   1.083       .  S
C214        H224   1.082       .  S
C225        C226   1.404       .  A
C225        C230   1.405       .  A
C226        C227   1.395       .  A
C226        H239   1.083       .  S
C227        C228   1.401       .  A
C227        H240   1.084       .  S
C228        C229   1.408       .  A
C228        C231   1.482       .  S
C229        C230   1.400       .  A
C229        H241   1.082       .  S
C230        H242   1.083       .  S
C231        C232   1.345       .  D
C231        H243   1.086       .  S
C232        C233   1.484       .  S
C232        H244   1.086       .  S
C233        C234   1.404       .  A
C233        C238   1.408       .  A
C234        C235   1.399       .  A
C234        H245   1.083       .  S
C235        C236   1.403       .  A
C235        H246   1.083       .  S
C236        C237   1.403       .  A
C237        C238   1.396       .  A
C237        H247   1.083       .  S
C238        H248   1.082       .  S
C249        C250   1.406       .  A
C249        C254   1.406       .  A
C250        C251   1.399       .  A
C250        H263   1.083       .  S
C251        C252   1.402       .  A
C251        H264   1.083       .  S
C252        C253   1.406       .  A
C252        C255   1.483       .  S
C253        C254   1.399       .  A
C253        H265   1.083       .  S
C254        H266   1.083       .  S
C255        C256   1.345       .  D
C255        H267   1.086       .  S
C256        C257   1.482       .  S
C256        H268   1.087       .  S
C257        C258   1.402       .  A
C257        C262   1.406       .  A
C258        C259   1.397       .  A
C258        H269   1.083       .  S
C259        C260   1.405       .  A
C259        H270   1.083       .  S
C260        C261   1.406       .  A
C261        C262   1.400       .  A
C261        H271   1.083       .  S
C262        H272   1.083       .  S
C273        C274   1.403       .  A
C273        C278   1.405       .  A
C274        C275   1.397       .  A
C274        H287   1.083       .  S
C275        C276   1.405       .  A
C275        H288   1.083       .  S
C276        C277   1.409       .  A
C276        C279   1.489       .  S
C277        C278   1.400       .  A
C277        H289   1.081       .  S
C278        H290   1.083       .  S
C279        C280   1.350       .  D
C279        H291   1.082       .  S
C280        C281   1.494       .  S
C280        H292   1.085       .  S
C281        C282   1.406       .  A
C281        C286   1.410       .  A
C282        C283   1.400       .  A
C282        H293   1.083       .  S
C283        C284   1.405       .  A
C283        H294   1.083       .  S
C284        C285   1.405       .  A
C285        C286   1.398       .  A
C285        H295   1.083       .  S
C286        H296   1.079       .  S
C297        C298   1.401       .  A
C297        C302   1.403       .  A
C298        C299   1.397       .  A
C298        H311   1.083       .  S
C299        C300   1.405       .  A
C299        H312   1.083       .  S
C300        C301   1.410       .  A
C300        C303   1.489       .  S
C301        C302   1.398       .  A
C301        H313   1.080       .  S
C302        H314   1.083       .  S
C303        C304   1.348       .  D
C303        H315   1.084       .  S
C304        C305   1.488       .  S
C304        H316   1.084       .  S
C305        C306   1.404       .  A
C305        C310   1.409       .  A
C306        C307   1.398       .  A
C306        H317   1.083       .  S
C307        C308   1.405       .  A
C307        H318   1.083       .  S
C308        C309   1.405       .  A
C309        C310   1.398       .  A
C309        H319   1.083       .  S
C310        H320   1.081       .  S
C321        C322   1.406       .  A
C321        C326   1.406       .  A
C322        C323   1.398       .  A
C322        H335   1.083       .  S
C323        C324   1.402       .  A
C323        H336   1.083       .  S
C324        C325   1.406       .  A
C324        C327   1.483       .  S
C325        C326   1.399       .  A
C325        H337   1.082       .  S
C326        H338   1.083       .  S
C327        C328   1.345       .  D
C327        H339   1.087       .  S
C328        C329   1.482       .  S
C328        H340   1.086       .  S
C329        C330   1.403       .  A
C329        C334   1.407       .  A
C330        C331   1.398       .  A
C330        H341   1.083       .  S
C331        C332   1.402       .  A
C331        H342   1.083       .  S
C332        C333   1.403       .  A
C333        C334   1.399       .  A
C333        H343   1.083       .  S
C334        H344   1.082       .  S
C345        C346   1.404       .  A
C345        C350   1.405       .  A
C346        C347   1.397       .  A
C346        H359   1.083       .  S
C347        C348   1.404       .  A
C347        H360   1.083       .  S
C348        C349   1.409       .  A
C348        C351   1.488       .  S
C349        C350   1.398       .  A
C349        H361   1.080       .  S
C350        H362   1.083       .  S
C351        C352   1.347       .  D
C351        H363   1.085       .  S
C352        C353   1.487       .  S
C352        H364   1.084       .  S
C353        C354   1.403       .  A
C353        C358   1.410       .  A
C354        C355   1.396       .  A
C354        H365   1.083       .  S
C355        C356   1.404       .  A
C355        H366   1.083       .  S
C356        C357   1.402       .  A
C357        C358   1.399       .  A
C357        H367   1.083       .  S
C358        H368   1.081       .  S
C369        C370   1.403       .  A
C369        C374   1.403       .  A
C370        C371   1.397       .  A
C370        H383   1.083       .  S
C371        C372   1.403       .  A
C371        H384   1.083       .  S
C372        C373   1.407       .  A
C372        C375   1.481       .  S
C373        C374   1.399       .  A
C373        H385   1.082       .  S
C374        H386   1.083       .  S
C375        C376   1.345       .  D
C375        H387   1.086       .  S
C376        C377   1.483       .  S
C376        H388   1.086       .  S
C377        C378   1.403       .  A
C377        C382   1.407       .  A
C378        C379   1.398       .  A
C378        H389   1.083       .  S
C379        C380   1.405       .  A
C379        H390   1.083       .  S
C380        C381   1.404       .  A
C381        C382   1.398       .  A
C381        H391   1.083       .  S
C382        H392   1.082       .  S
C393        C394   1.407       .  A
C393        C398   1.406       .  A
C394        C395   1.399       .  A
C394        H407   1.083       .  S
C395        C396   1.402       .  A
C395        H408   1.083       .  S
C396        C397   1.406       .  A
C396        C399   1.483       .  S
C397        C398   1.398       .  A
C397        H409   1.083       .  S
C398        H410   1.083       .  S
C399        C400   1.345       .  D
C399        H411   1.086       .  S
C400        C401   1.483       .  S
C400        H412   1.086       .  S
C401        C402   1.403       .  A
C401        C406   1.406       .  A
C402        C403   1.398       .  A
C402        H413   1.083       .  S
C403        C404   1.406       .  A
C403        H414   1.083       .  S
C404        C405   1.406       .  A
C405        C406   1.398       .  A
C405        H415   1.083       .  S
C406        H416   1.082       .  S
C417        C418   1.403       .  A
C417        C422   1.403       .  A
C418        C419   1.396       .  A
C418        H431   1.083       .  S
C419        C420   1.403       .  A
C419        H432   1.083       .  S
C420        C421   1.408       .  A
C420        C423   1.484       .  S
C421        C422   1.400       .  A
C421        H433   1.082       .  S
C422        H434   1.083       .  S
C423        C424   1.346       .  D
C423        H435   1.086       .  S
C424        C425   1.485       .  S
C424        H436   1.086       .  S
C425        C426   1.403       .  A
C425        C430   1.407       .  A
C426        C427   1.398       .  A
C426        H437   1.083       .  S
C427        C428   1.405       .  A
C427        H438   1.083       .  S
C428        C429   1.405       .  A
C429        C430   1.399       .  A
C429        H439   1.083       .  S
C430        H440   1.082       .  S
C441        C442   1.402       .  A
C441        C446   1.403       .  A
C442        C443   1.398       .  A
C442        H455   1.083       .  S
C443        C444   1.405       .  A
C443        H456   1.083       .  S
C444        C445   1.409       .  A
C444        C447   1.488       .  S
C445        C446   1.398       .  A
C445        H457   1.081       .  S
C446        H458   1.083       .  S
C447        C448   1.349       .  D
C447        H459   1.084       .  S
C448        C449   1.490       .  S
C448        H460   1.085       .  S
C449        C450   1.405       .  A
C449        C454   1.408       .  A
C450        C451   1.399       .  A
C450        H461   1.083       .  S
C451        C452   1.405       .  A
C451        H462   1.083       .  S
C452        C453   1.405       .  A
C453        C454   1.398       .  A
C453        H463   1.083       .  S
C454        H464   1.080       .  S
C465        C466   1.404       .  A
C465        C470   1.403       .  A
C466        C467   1.400       .  A
C466        H479   1.083       .  S
C467        C468   1.406       .  A
C467        H480   1.083       .  S
C468        C469   1.410       .  A
C468        C471   1.493       .  S
C469        C470   1.399       .  A
C469        H481   1.080       .  S
C470        H482   1.083       .  S
C471        C472   1.351       .  D
C471        H483   1.083       .  S
C472        C473   1.493       .  S
C472        H484   1.084       .  S
C473        C474   1.405       .  A
C473        C478   1.410       .  A
C474        C475   1.398       .  A
C474        H485   1.083       .  S
C475        C476   1.405       .  A
C475        H486   1.083       .  S
C476        C477   1.407       .  A
C477        C478   1.401       .  A
C477        H487   1.083       .  S
C478        H488   1.080       .  S
C489        C490   1.405       .  A
C489        C494   1.405       .  A
C490        C491   1.399       .  A
C490        H503   1.083       .  S
C491        C492   1.404       .  A
C491        H504   1.083       .  S
C492        C493   1.409       .  A
C492        C495   1.490       .  S
C493        C494   1.398       .  A
C493        H505   1.081       .  S
C494        H506   1.083       .  S
C495        C496   1.348       .  D
C495        H507   1.084       .  S
C496        C497   1.489       .  S
C496        H508   1.084       .  S
C497        C498   1.405       .  A
C497        C502   1.411       .  A
C498        C499   1.396       .  A
C498        H509   1.083       .  S
C499        C500   1.402       .  A
C499        H510   1.083       .  S
C500        C501   1.402       .  A
C501        C502   1.400       .  A
C501        H511   1.083       .  S
C502        H512   1.080       .  S
C513        C514   1.406       .  A
C513        C518   1.406       .  A
C514        C515   1.401       .  A
C514        H527   1.083       .  S
C515        C516   1.405       .  A
C515        H528   1.083       .  S
C516        C517   1.408       .  A
C516        C519   1.491       .  S
C517        C518   1.398       .  A
C517        H529   1.081       .  S
C518        H530   1.083       .  S
C519        C520   1.351       .  D
C519        H531   1.083       .  S
C520        C521   1.493       .  S
C520        H532   1.085       .  S
C521        C522   1.406       .  A
C521        C526   1.409       .  A
C522        C523   1.399       .  A
C522        H533   1.083       .  S
C523        C524   1.404       .  A
C523        H534   1.083       .  S
C524        C525   1.405       .  A
C525        C526   1.399       .  A
C525        H535   1.083       .  S
C526        H536   1.080       .  S
C537        C538   1.405       .  A
C537        C542   1.405       .  A
C538        C539   1.398       .  A
C538        H551   1.083       .  S
C539        C540   1.406       .  A
C539        H552   1.083       .  S
C540        C541   1.411       .  A
C540        C543   1.495       .  S
C541        C542   1.400       .  A
C541        H553   1.079       .  S
C542        H554   1.083       .  S
C543        C544   1.350       .  D
C543        H555   1.084       .  S
C544        C545   1.492       .  S
C544        H556   1.082       .  S
C545        C546   1.406       .  A
C545        C550   1.410       .  A
C546        C547   1.398       .  A
C546        H557   1.083       .  S
C547        C548   1.403       .  A
C547        H558   1.083       .  S
C548        C549   1.403       .  A
C549        C550   1.400       .  A
C549        H559   1.083       .  S
C550        H560   1.080       .  S
C561        C562   1.404       .  A
C561        C566   1.403       .  A
C562        C563   1.398       .  A
C562        H575   1.083       .  S
C563        C564   1.403       .  A
C563        H576   1.083       .  S
C564        C565   1.408       .  A
C564        C567   1.485       .  S
C565        C566   1.398       .  A
C565        H577   1.082       .  S
C566        H578   1.083       .  S
C567        C568   1.346       .  D
C567        H579   1.086       .  S
C568        C569   1.483       .  S
C568        H580   1.086       .  S
C569        C570   1.402       .  A
C569        C574   1.407       .  A
C570        C571   1.397       .  A
C570        H581   1.083       .  S
C571        C572   1.405       .  A
C571        H582   1.083       .  S
C572        C573   1.405       .  A
C573        C574   1.400       .  A
C573        H583   1.083       .  S
C574        H584   1.082       .  S
C585        C586   1.404       .  A
C585        C590   1.403       .  A
C586        C587   1.398       .  A
C586        H599   1.083       .  S
C587        C588   1.405       .  A
C587        H600   1.083       .  S
C588        C589   1.409       .  A
C588        C591   1.489       .  S
C589        C590   1.398       .  A
C589        H601   1.081       .  S
C590        H602   1.083       .  S
C591        C592   1.350       .  D
C591        H603   1.082       .  S
C592        C593   1.493       .  S
C592        H604   1.084       .  S
C593        C594   1.406       .  A
C593        C598   1.410       .  A
C594        C595   1.398       .  A
C594        H605   1.083       .  S
C595        C596   1.404       .  A
C595        H606   1.083       .  S
C596        C597   1.405       .  A
C597        C598   1.399       .  A
C597        H607   1.083       .  S
C598        H608   1.079       .  S
C609        C610   1.402       .  A
C609        C614   1.404       .  A
C610        C611   1.397       .  A
C610        H623   1.083       .  S
C611        C612   1.405       .  A
C611        H624   1.083       .  S
C612        C613   1.410       .  A
C612        C615   1.491       .  S
C613        C614   1.400       .  A
C613        H625   1.080       .  S
C614        H626   1.083       .  S
C615        C616   1.350       .  D
C615        H627   1.083       .  S
C616        C617   1.493       .  S
C616        H628   1.084       .  S
C617        C618   1.405       .  A
C617        C622   1.410       .  A
C618        C619   1.399       .  A
C618        H629   1.083       .  S
C619        C620   1.405       .  A
C619        H630   1.083       .  S
C620        C621   1.405       .  A
C621        C622   1.399       .  A
C621        H631   1.083       .  S
C622        H632   1.079       .  S
C633        C634   1.401       .  A
C633        C638   1.404       .  A
C634        C635   1.396       .  A
C634        H647   1.083       .  S
C635        C636   1.405       .  A
C635        H648   1.083       .  S
C636        C637   1.411       .  A
C636        C639   1.492       .  S
C637        C638   1.401       .  A
C637        H649   1.080       .  S
C638        H650   1.083       .  S
C639        C640   1.349       .  D
C639        H651   1.084       .  S
C640        C641   1.491       .  S
C640        H652   1.083       .  S
C641        C642   1.404       .  A
C641        C646   1.410       .  A
C642        C643   1.398       .  A
C642        H653   1.083       .  S
C643        C644   1.406       .  A
C643        H654   1.083       .  S
C644        C645   1.405       .  A
C645        C646   1.399       .  A
C645        H655   1.083       .  S
C646        H656   1.081       .  S
C657        C658   1.406       .  A
C657        C662   1.406       .  A
C658        C659   1.398       .  A
C658        H671   1.083       .  S
C659        C660   1.403       .  A
C659        H672   1.084       .  S
C660        C661   1.407       .  A
C660        C663   1.485       .  S
C661        C662   1.399       .  A
C661        H673   1.082       .  S
C662        H674   1.083       .  S
C663        C664   1.346       .  D
C663        H675   1.086       .  S
C664        C665   1.483       .  S
C664        H676   1.086       .  S
C665        C666   1.402       .  A
C665        C670   1.407       .  A
C666        C667   1.397       .  A
C666        H677   1.083       .  S
C667        C668   1.404       .  A
C667        H678   1.083       .  S
C668        C669   1.405       .  A
C669        C670   1.399       .  A
C669        H679   1.083       .  S
C670        H680   1.082       .  S
C681        C682   1.405       .  A
C681        C686   1.406       .  A
C682        C683   1.398       .  A
C682        H695   1.083       .  S
C683        C684   1.404       .  A
C683        H696   1.083       .  S
C684        C685   1.409       .  A
C684        C687   1.490       .  S
C685        C686   1.399       .  A
C685        H697   1.081       .  S
C686        H698   1.083       .  S
C687        C688   1.350       .  D
C687        H699   1.082       .  S
C688        C689   1.494       .  S
C688        H700   1.084       .  S
C689        C690   1.406       .  A
C689        C694   1.411       .  A
C690        C691   1.398       .  A
C690        H701   1.083       .  S
C691        C692   1.403       .  A
C691        H702   1.083       .  S
C692        C693   1.404       .  A
C693        C694   1.399       .  A
C693        H703   1.083       .  S
C694        H704   1.079       .  S
C705        C706   1.404       .  A
C705        C710   1.405       .  A
C706        C707   1.396       .  A
C706        H719   1.083       .  S
C707        C708   1.402       .  A
C707        H720   1.083       .  S
C708        C709   1.408       .  A
C708        C711   1.483       .  S
C709        C710   1.400       .  A
C709        H721   1.082       .  S
C710        H722   1.083       .  S
C711        C712   1.346       .  D
C711        H723   1.086       .  S
C712        C713   1.484       .  S
C712        H724   1.086       .  S
C713        C714   1.403       .  A
C713        C718   1.408       .  A
C714        C715   1.398       .  A
C714        H725   1.083       .  S
C715        C716   1.403       .  A
C715        H726   1.083       .  S
C716        C717   1.402       .  A
C717        C718   1.397       .  A
C717        H727   1.083       .  S
C718        H728   1.082       .  S
C729        C730   1.402       .  A
C729        C734   1.401       .  A
C730        C731   1.398       .  A
C730        H743   1.083       .  S
C731        C732   1.404       .  A
C731        H744   1.083       .  S
C732        C733   1.408       .  A
C732        C735   1.482       .  S
C733        C734   1.397       .  A
C733        H745   1.082       .  S
C734        H746   1.083       .  S
C735        C736   1.346       .  D
C735        H747   1.086       .  S
C736        C737   1.482       .  S
C736        H748   1.086       .  S
C737        C738   1.403       .  A
C737        C742   1.406       .  A
C738        C739   1.398       .  A
C738        H749   1.083       .  S
C739        C740   1.406       .  A
C739        H750   1.083       .  S
C740        C741   1.406       .  A
C741        C742   1.397       .  A
C741        H751   1.083       .  S
C742        H752   1.082       .  S
C753        C754   1.406       .  A
C753        C758   1.406       .  A
C754        C755   1.398       .  A
C754        H767   1.083       .  S
C755        C756   1.402       .  A
C755        H768   1.083       .  S
C756        C757   1.406       .  A
C756        C759   1.483       .  S
C757        C758   1.398       .  A
C757        H769   1.082       .  S
C758        H770   1.083       .  S
C759        C760   1.345       .  D
C759        H771   1.086       .  S
C760        C761   1.483       .  S
C760        H772   1.086       .  S
C761        C762   1.403       .  A
C761        C766   1.408       .  A
C762        C763   1.397       .  A
C762        H773   1.083       .  S
C763        C764   1.403       .  A
C763        H774   1.083       .  S
C764        C765   1.404       .  A
C765        C766   1.399       .  A
C765        H775   1.083       .  S
C766        H776   1.082       .  S
C777        C778   1.405       .  A
C777        C782   1.405       .  A
C778        C779   1.399       .  A
C778        H791   1.083       .  S
C779        C780   1.405       .  A
C779        H792   1.083       .  S
C780        C781   1.410       .  A
C780        C783   1.493       .  S
C781        C782   1.400       .  A
C781        H793   1.080       .  S
C782        H794   1.083       .  S
C783        C784   1.350       .  D
C783        H795   1.084       .  S
C784        C785   1.492       .  S
C784        H796   1.084       .  S
C785        C786   1.406       .  A
C785        C790   1.410       .  A
C786        C787   1.399       .  A
C786        H797   1.083       .  S
C787        C788   1.402       .  A
C787        H798   1.083       .  S
C788        C789   1.404       .  A
C789        C790   1.399       .  A
C789        H799   1.083       .  S
C790        H800   1.080       .  S
C801        C802   1.405       .  A
C801        C806   1.405       .  A
C802        C803   1.397       .  A
C802        H815   1.083       .  S
C803        C804   1.404       .  A
C803        H816   1.083       .  S
C804        C805   1.409       .  A
C804        C807   1.489       .  S
C805        C806   1.399       .  A
C805        H817   1.080       .  S
C806        H818   1.083       .  S
C807        C808   1.349       .  D
C807        H819   1.084       .  S
C808        C809   1.489       .  S
C808        H820   1.084       .  S
C809        C810   1.405       .  A
C809        C814   1.410       .  A
C810        C811   1.398       .  A
C810        H821   1.083       .  S
C811        C812   1.403       .  A
C811        H822   1.083       .  S
C812        C813   1.403       .  A
C813        C814   1.397       .  A
C813        H823   1.083       .  S
C814        H824   1.080       .  S
C825        C826   1.405       .  A
C825        C830   1.406       .  A
C826        C827   1.398       .  A
C826        H839   1.083       .  S
C827        C828   1.405       .  A
C827        H840   1.083       .  S
C828        C829   1.410       .  A
C828        C831   1.494       .  S
C829        C830   1.401       .  A
C829        H841   1.080       .  S
C830        H842   1.083       .  S
C831        C832   1.350       .  D
C831        H843   1.083       .  S
C832        C833   1.493       .  S
C832        H844   1.083       .  S
C833        C834   1.406       .  A
C833        C838   1.411       .  A
C834        C835   1.399       .  A
C834        H845   1.083       .  S
C835        C836   1.403       .  A
C835        H846   1.083       .  S
C836        C837   1.402       .  A
C837        C838   1.400       .  A
C837        H847   1.083       .  S
C838        H848   1.080       .  S
C849        C850   1.405       .  A
C849        C854   1.406       .  A
C850        C851   1.396       .  A
C850        H863   1.083       .  S
C851        C852   1.401       .  A
C851        H864   1.083       .  S
C852        C853   1.407       .  A
C852        C855   1.482       .  S
C853        C854   1.400       .  A
C853        H865   1.083       .  S
C854        H866   1.083       .  S
C855        C856   1.345       .  D
C855        H867   1.086       .  S
C856        C857   1.484       .  S
C856        H868   1.087       .  S
C857        C858   1.403       .  A
C857        C862   1.407       .  A
C858        C859   1.397       .  A
C858        H869   1.083       .  S
C859        C860   1.405       .  A
C859        H870   1.083       .  S
C860        C861   1.404       .  A
C861        C862   1.399       .  A
C861        H871   1.083       .  S
C862        H872   1.082       .  S
C873        C874   1.401       .  A
C873        C878   1.404       .  A
C874        C875   1.397       .  A
C874        H887   1.083       .  S
C875        C876   1.406       .  A
C875        H888   1.083       .  S
C876        C877   1.411       .  A
C876        C879   1.492       .  S
C877        C878   1.400       .  A
C877        H889   1.079       .  S
C878        H890   1.083       .  S
C879        C880   1.350       .  D
C879        H891   1.083       .  S
C880        C881   1.493       .  S
C880        H892   1.083       .  S
C881        C882   1.405       .  A
C881        C886   1.409       .  A
C882        C883   1.400       .  A
C882        H893   1.083       .  S
C883        C884   1.405       .  A
C883        H894   1.083       .  S
C884        C885   1.405       .  A
C885        C886   1.398       .  A
C885        H895   1.083       .  S
C886        H896   1.080       .  S
C897        C898   1.406       .  A
C897        C902   1.405       .  A
C898        C899   1.398       .  A
C898        H911   1.083       .  S
C899        C900   1.402       .  A
C899        H912   1.083       .  S
C900        C901   1.406       .  A
C900        C903   1.481       .  S
C901        C902   1.398       .  A
C901        H913   1.083       .  S
C902        H914   1.083       .  S
C903        C904   1.344       .  D
C903        H915   1.087       .  S
C904        C905   1.480       .  S
C904        H916   1.087       .  S
C905        C906   1.402       .  A
C905        C910   1.406       .  A
C906        C907   1.397       .  A
C906        H917   1.083       .  S
C907        C908   1.405       .  A
C907        H918   1.083       .  S
C908        C909   1.405       .  A
C909        C910   1.398       .  A
C909        H919   1.083       .  S
C910        H920   1.083       .  S
C921        C922   1.403       .  A
C921        C926   1.403       .  A
C922        C923   1.399       .  A
C922        H935   1.083       .  S
C923        C924   1.404       .  A
C923        H936   1.083       .  S
C924        C925   1.407       .  A
C924        C927   1.484       .  S
C925        C926   1.397       .  A
C925        H937   1.082       .  S
C926        H938   1.083       .  S
C927        C928   1.346       .  D
C927        H939   1.086       .  S
C928        C929   1.483       .  S
C928        H940   1.086       .  S
C929        C930   1.402       .  A
C929        C934   1.407       .  A
C930        C931   1.397       .  A
C930        H941   1.084       .  S
C931        C932   1.406       .  A
C931        H942   1.083       .  S
C932        C933   1.406       .  A
C933        C934   1.400       .  A
C933        H943   1.083       .  S
C934        H944   1.082       .  S
