geometry optimzed in LAMMPS
_audit_creation_date              2020-12-01 
_audit_creation_method            'lammps2cif' 
_symmetry_space_group_name_H-M    'P1' 
_symmetry_Int_Tables_number       1 
_symmetry_cell_setting            triclinic 
loop_ 
_symmetry_equiv_pos_as_xyz 
  x,y,z 
_cell_length_a                    37.96655056 
_cell_length_b                    38.09868158635602 
_cell_length_c                    36.41000125752417 
_cell_angle_alpha                 90.04258030886916 
_cell_angle_beta                  89.99585829107903 
_cell_angle_gamma                 124.11667219211017 
loop_ 
_atom_site_label 
_atom_site_type_symbol 
_atom_site_fract_x 
_atom_site_fract_y 
_atom_site_fract_z 
_atom_site_charge 
N1          N  0.33521350  0.10123032  0.20477407    -0.27700
N2          N  0.35146814  0.13626131  0.18521690    -0.35500
C3          C  0.36947429  0.16980636  0.20795410     0.00700
C4          C  0.36414693  0.15527622  0.24368430     0.06700
C5          C  0.34204834  0.11157636  0.24062028    -0.06400
H6          H  0.38597987  0.20241209  0.19897025     0.07400
H7          H  0.33343774  0.08911346  0.26265728     0.08600
Cu8        Cu  0.35219119  0.13777335  0.12849559     0.44200
Cu9        Cu  0.30934415  0.04179803  0.18140720     0.42000
Cu10       Cu  0.32985930  0.04418977  0.08292607     0.43900
N11         N  0.35801961  0.13432621  0.07243706    -0.35100
N12         N  0.35206049  0.10063611  0.05566678    -0.29300
C13         C  0.36141287  0.10955848  0.01979605    -0.05400
C14         C  0.37327627  0.15072806  0.01379645     0.06800
C15         C  0.37064459  0.16536460  0.04775103     0.00600
H16         H  0.35927196  0.08759716  0.99959473     0.08200
H17         H  0.37857883  0.19672235  0.05428192     0.07300
N18         N  0.30107082  0.99005456  0.11505573    -0.36500
N19         N  0.29232889  0.98864081  0.15040143    -0.28700
C20         C  0.27205833  0.94824499  0.16203304    -0.03900
C21         C  0.26807755  0.92310343  0.13260868     0.04700
C22         C  0.28689902  0.95080885  0.10335957     0.02800
H23         H  0.26154086  0.93811027  0.18996163     0.07900
H24         H  0.28945021  0.94303381  0.07533978     0.06700
C25         C  0.20649953  0.51436926  0.12145503    -0.02900
C26         C  0.19131246  0.73983584  0.13036003    -0.02900
C27         C  0.32745843  0.71233757  0.12922415     0.79800
N28         N  0.29656287  0.71997485  0.13075269    -0.78500
C29         C  0.25485356  0.68718855  0.13029739     0.82300
N30         N  0.24432927  0.64682298  0.12849630    -0.78400
C31         C  0.27496891  0.63879856  0.12735202     0.82400
N32         N  0.31644258  0.67165593  0.12790194    -0.80100
C33         C  0.45195411  0.77759209  0.12172323    -0.02900
N34         N  0.61411390  0.59695540  0.20074181    -0.27700
N35         N  0.62915438  0.57846141  0.18191421    -0.35500
C36         C  0.64241166  0.56098245  0.20533727     0.00700
C37         C  0.63558296  0.56892629  0.24084073     0.06700
C38         C  0.61762826  0.59194370  0.23683323    -0.06400
H39         H  0.65617623  0.54392652  0.19693835     0.07400
H40         H  0.60711520  0.60352676  0.25843699     0.08600
Cu41       Cu  0.62952387  0.57624190  0.12533361     0.44200
Cu42       Cu  0.58798858  0.62620032  0.17572075     0.42000
Cu43       Cu  0.56410694  0.60202695  0.07782776     0.43900
N44         N  0.62056546  0.57085327  0.06923061    -0.35100
N45         N  0.59429448  0.57752295  0.05182867    -0.29300
C46         C  0.59503472  0.57035118  0.01572743    -0.05400
C47         C  0.62373285  0.55934769  0.01031755     0.06800
C48         C  0.63933578  0.56004188  0.04476255     0.00600
H49         H  0.57756009  0.57474980  0.99486002     0.08200
H50         H  0.66265772  0.55323167  0.05157297     0.07300
N51         N  0.55021446  0.63883242  0.10808982    -0.36500
N52         N  0.56022814  0.64891940  0.14305839    -0.28700
C53         C  0.54905759  0.67529883  0.15333908    -0.03900
C54         C  0.53095034  0.68200848  0.12345883     0.04700
C55         C  0.53221848  0.65830631  0.09528571     0.02800
H56         H  0.55324531  0.68804337  0.18074971     0.07900
H57         H  0.52159887  0.65589446  0.06727265     0.06700
N58         N  0.84192558  0.35302771  0.19760048    -0.27700
N59         N  0.80606471  0.33645661  0.17901121    -0.35500
C60         C  0.77382131  0.32309042  0.20276849     0.00700
C61         C  0.79004687  0.33141883  0.23816003     0.06700
C62         C  0.83339954  0.35032399  0.23374996    -0.06400
H63         H  0.74094816  0.30811756  0.19474539     0.07400
H64         H  0.85719245  0.36199738  0.25515009     0.08600
Cu65       Cu  0.80267760  0.33354918  0.12216667     0.44200
Cu66       Cu  0.90081683  0.37981653  0.17262529     0.42000
Cu67       Cu  0.90290606  0.39438131  0.07377768     0.43900
N68         N  0.80772295  0.33909650  0.06548684    -0.35100
N69         N  0.84420674  0.36354515  0.04792403    -0.29300
C70         C  0.83645362  0.36184947  0.01168396    -0.05400
C71         C  0.79309975  0.33442952  0.00625041     0.06800
C72         C  0.77585714  0.32047151  0.04086348     0.00600
H73         H  0.86065520  0.37835210  0.99079667     0.08200
H74         H  0.74255351  0.29891600  0.04770260     0.07300
N75         N  0.95619466  0.41227798  0.10495645    -0.36500
N76         N  0.95530065  0.40599835  0.14074095    -0.28700
C77         C  0.99454507  0.41894241  0.15208601    -0.03900
C78         C  0.02156739  0.43424499  0.12201866     0.04700
C79         C  0.99603524  0.42954345  0.09262164     0.02800
H80         H  0.00276209  0.41764972  0.18026389     0.07900
H81         H  0.00538855  0.43726026  0.06415861     0.06700
N82         N  0.03622977  0.66207316  0.45255267    -0.27700
N83         N  0.07155091  0.67357561  0.43491855    -0.35500
C84         C  0.10415142  0.69163519  0.45867941     0.00700
C85         C  0.08877217  0.69180034  0.49307291     0.06700
C86         C  0.04551407  0.67291678  0.48817203    -0.06400
H87         H  0.13670820  0.70395443  0.45127080     0.07400
H88         H  0.02234857  0.66656878  0.50903177     0.08600
Cu89       Cu  0.07448944  0.66527972  0.37934887     0.44200
Cu90       Cu  0.97757103  0.63130489  0.42665697     0.42000
Cu91       Cu  0.97818910  0.62042236  0.32663987     0.43900
N92         N  0.07228554  0.65915222  0.32302339    -0.35100
N93         N  0.03719277  0.64287323  0.30338848    -0.29300
C94         C  0.04728051  0.64636298  0.26755160    -0.05400
C95         C  0.09095408  0.66609402  0.26452129     0.06800
C96         C  0.10559247  0.67356332  0.30039603     0.00600
H97         H  0.02471814  0.63718551  0.24541333     0.08200
H98         H  0.13817963  0.68953292  0.30961208     0.07300
N99         N  0.92406533  0.60071426  0.35753060    -0.36500
N100        N  0.92380622  0.60336121  0.39375582    -0.28700
C101        C  0.88393153  0.58774155  0.40508142    -0.03900
C102        C  0.85786324  0.57518867  0.37456415     0.04700
C103        C  0.88438452  0.58396015  0.34485727     0.02800
H104        H  0.87496600  0.58727471  0.43337475     0.07900
H105        H  0.87559720  0.57883540  0.31612393     0.06700
N106        N  0.31863194  0.48405711  0.44883036    -0.27700
N107        N  0.29655949  0.49532592  0.43022097    -0.35500
C108        C  0.27678400  0.50582761  0.45389669     0.00700
C109        C  0.28697530  0.50134501  0.48925226     0.06700
C110        C  0.31386755  0.48776779  0.48504895    -0.06400
H111        H  0.25569799  0.51513547  0.44587763     0.07400
H112        H  0.32700925  0.47895631  0.50668597     0.08600
Cu113      Cu  0.29069041  0.49309554  0.37359891     0.44200
Cu114      Cu  0.34889629  0.45845262  0.42371813     0.42000
Cu115      Cu  0.32995221  0.44122786  0.32424844     0.43900
N116        N  0.28458547  0.48488676  0.31721436    -0.35100
N117        N  0.29861819  0.46525351  0.29875376    -0.29300
C118        C  0.28914107  0.46421462  0.26295772    -0.05400
C119        C  0.26809650  0.48431308  0.25858928     0.06800
C120        C  0.26593253  0.49698720  0.29380821     0.00600
H121        H  0.29731795  0.45007404  0.24176741     0.08200
H122        H  0.25152133  0.51344004  0.30213164     0.07300
N123        N  0.35979032  0.41948379  0.35577430    -0.36500
N124        N  0.36749488  0.42617099  0.39142983    -0.28700
C125        C  0.38519293  0.40575177  0.40295603    -0.03900
C126        C  0.38844448  0.38488211  0.37323534     0.04700
C127        C  0.37212466  0.39457406  0.34384289     0.02800
H128        H  0.39298529  0.40436690  0.43126227     0.07900
H129        H  0.36842330  0.38350877  0.31584504     0.06700
C130        C  0.67828822  0.51717874  0.37624768    -0.02900
C131        C  0.55804387  0.33558387  0.37150469     0.79800
N132        N  0.58688105  0.37809171  0.37134552    -0.78500
C133        C  0.62916113  0.39479313  0.37236966     0.82300
N134        N  0.64268710  0.36854095  0.37300117    -0.78400
C135        C  0.61422168  0.32570809  0.37316881     0.82400
N136        N  0.57177167  0.30928882  0.37239993    -0.80100
C137        C  0.43295684  0.25931345  0.37673653    -0.02900
C138        C  0.69115480  0.28648504  0.37451605    -0.02900
N139        N  0.50373818  0.92340421  0.29944489    -0.27700
N140        N  0.49335707  0.88917376  0.31808681    -0.35500
C141        C  0.48335092  0.85775057  0.29449481     0.00700
C142        C  0.48781911  0.87290671  0.25903468     0.06700
C143        C  0.50086649  0.91477783  0.26330764    -0.06400
H144        H  0.47383972  0.82632543  0.30273722     0.07400
H145        H  0.50727913  0.93723316  0.24183825     0.08600
Cu146      Cu  0.49279675  0.88699041  0.37468419     0.44200
Cu147      Cu  0.52122363  0.97973300  0.32498307     0.42000
Cu148      Cu  0.51402669  0.97969208  0.42514699     0.43900
N149        N  0.48911608  0.88932493  0.43105168    -0.35100
N150        N  0.49460238  0.92189868  0.44964394    -0.29300
C151        C  0.48763719  0.91153491  0.48553953    -0.05400
C152        C  0.47804529  0.87086235  0.48949521     0.06800
C153        C  0.47938090  0.85788516  0.45444925     0.00600
H154        H  0.49039638  0.93238745  0.50720923     0.08200
H155        H  0.47307572  0.82751164  0.44641340     0.07300
N156        N  0.53845681  0.03378657  0.39260368    -0.36500
N157        N  0.54111826  0.03332481  0.35639897    -0.28700
C158        C  0.56150562  0.07323260  0.34373098    -0.03900
C159        C  0.57241816  0.10052729  0.37321622     0.04700
C160        C  0.55703861  0.07425865  0.40381326     0.02800
H161        H  0.56894861  0.08172831  0.31509334     0.07900
H162        H  0.56114826  0.08401470  0.43226772     0.06700
C163        C  0.62819411  0.16856579  0.34316878    -0.13700
C164        C  0.59965489  0.14763231  0.37226268     0.08400
C165        C  0.59876559  0.17204279  0.40069138    -0.13700
C166        C  0.62652014  0.21641328  0.40029032    -0.13700
C167        C  0.65697140  0.23774468  0.37201274     0.08400
C168        C  0.65650186  0.21258270  0.34311533    -0.13700
H169        H  0.63004490  0.15083100  0.32090507     0.12400
H170        H  0.57684761  0.15684552  0.42340690     0.12400
H171        H  0.62559716  0.23422603  0.42302591     0.12400
H172        H  0.67873080  0.22608364  0.32055804     0.12400
C173        C  0.62918237  0.29703459  0.37294277    -0.16800
C174        C  0.67080165  0.31198969  0.37716403    -0.32000
H175        H  0.60554524  0.26366758  0.36809888     0.12200
H176        H  0.69278596  0.34600848  0.38033770     0.12800
C177        C  0.51239016  0.31938216  0.37040732    -0.16800
C178        C  0.48125490  0.27868297  0.37735072    -0.32000
H179        H  0.50490171  0.34218805  0.36370881     0.12200
H180        H  0.49106514  0.25720568  0.38178910     0.12800
C181        C  0.64885435  0.46837125  0.37789158    -0.16800
C182        C  0.66046250  0.44113871  0.37206003    -0.32000
H183        H  0.61519132  0.45463905  0.38169525     0.12200
H184        H  0.69312463  0.45233939  0.36618224     0.12800
C185        C  0.39576405  0.29287329  0.34716977    -0.13700
C186        C  0.42303752  0.29391108  0.37432155     0.08400
C187        C  0.43936445  0.32657173  0.40095047    -0.13700
C188        C  0.42852945  0.35624833  0.40064029    -0.13700
C189        C  0.40155484  0.35471054  0.37335664     0.08400
C190        C  0.38575159  0.32294824  0.34650676    -0.13700
H191        H  0.38076842  0.26830546  0.32654509     0.08800
H192        H  0.45984489  0.32837812  0.42263899     0.12400
H193        H  0.44128130  0.38038098  0.42177894     0.12400
H194        H  0.36423708  0.32024919  0.32545505     0.12400
C195        C  0.79584753  0.57033800  0.34524377    -0.13700
C196        C  0.81236082  0.55933661  0.37399737     0.08400
C197        C  0.78556750  0.53463243  0.40298983    -0.13700
C198        C  0.74289338  0.52097538  0.40312264    -0.13700
C199        C  0.72581650  0.53242968  0.37468705     0.08400
C200        C  0.75349606  0.55777249  0.34581246    -0.13700
H201        H  0.81611077  0.58993184  0.32280941     0.12400
H202        H  0.79755891  0.52561372  0.42549438     0.12400
H203        H  0.72295916  0.50167409  0.42582578     0.12400
H204        H  0.74318739  0.56866173  0.32353900     0.12400
C205        C  0.72649872  0.31678737  0.27356287    -0.13700
C206        C  0.76615462  0.32205028  0.27301378     0.08400
C207        C  0.78228744  0.31721471  0.30585544    -0.13700
C208        C  0.75903853  0.30672155  0.33846745    -0.13700
C209        C  0.71930414  0.30196369  0.33955210     0.08400
C210        C  0.70340950  0.30682304  0.30621912    -0.13700
H211        H  0.71310461  0.32022801  0.24868546     0.12400
H212        H  0.81234253  0.32014800  0.30618625     0.12400
H213        H  0.77198108  0.30119381  0.36251842     0.12400
H214        H  0.67242061  0.30183463  0.30517315     0.12400
C215        C  0.77960839  0.35282167  0.44673305    -0.13700
C216        C  0.77437529  0.32198367  0.47122532     0.08400
C217        C  0.74324762  0.27928190  0.46405247    -0.13700
C218        C  0.71731829  0.26736767  0.43298391    -0.13700
C219        C  0.72004168  0.29811144  0.40904846     0.08400
C220        C  0.75269199  0.34114259  0.41627444    -0.13700
H221        H  0.80385645  0.38603103  0.45164288     0.12400
H222        H  0.73942096  0.25494322  0.48233797     0.12400
H223        H  0.69580633  0.23381654  0.42804456     0.12400
H224        H  0.75806385  0.36597604  0.39787412     0.12400
C225        C  0.65032641  0.57668853  0.30846288    -0.13700
C226        C  0.64542561  0.55557042  0.27534964     0.08400
C227        C  0.65110065  0.52222178  0.27524438    -0.13700
C228        C  0.66121170  0.51007656  0.30755448    -0.13700
C229        C  0.66581704  0.53073770  0.34119847     0.08400
C230        C  0.66098230  0.56494297  0.34078435    -0.13700
H231        H  0.64705884  0.60313237  0.30929466     0.12400
H232        H  0.64761368  0.50525025  0.25019439     0.12400
H233        H  0.66602195  0.48466774  0.30613398     0.12400
H234        H  0.66614554  0.58346728  0.36516558     0.12400
C235        C  0.61617927  0.53561626  0.44929119    -0.13700
C236        C  0.64759728  0.56152888  0.47506433     0.08400
C237        C  0.68974502  0.57524730  0.46817259    -0.13700
C238        C  0.70036964  0.56285918  0.43620405    -0.13700
C239        C  0.66863129  0.53416739  0.41106685     0.08400
C240        C  0.62641852  0.52186758  0.41797930    -0.13700
H241        H  0.58345737  0.52512898  0.45379520     0.12400
H242        H  0.70372518  0.58766646  0.98958748     0.12400
H243        H  0.73371010  0.57644538  0.43162401     0.12400
H244        H  0.60113212  0.50194850  0.39873887     0.12400
C245        C  0.52561034  0.74043707  0.14768048    -0.13700
C246        C  0.51302657  0.70786353  0.12213754     0.08400
C247        C  0.48278299  0.69982745  0.09545078    -0.13700
C248        C  0.46436067  0.72280467  0.09511186    -0.13700
C249        C  0.47535322  0.75465215  0.12156366     0.08400
C250        C  0.50748565  0.76381400  0.14720327    -0.13700
H251        H  0.54973944  0.74812252  0.16801035     0.12400
H252        H  0.47253198  0.67510484  0.07518299     0.12400
H253        H  0.44112754  0.71557829  0.07398105     0.12400
H254        H  0.51898522  0.78896155  0.16718343     0.12400
C255        C  0.49095663  0.80870315  0.05910034    -0.13700
C256        C  0.46292678  0.80546549  0.08670568     0.08400
C257        C  0.44533490  0.82949381  0.08147253    -0.13700
C258        C  0.45397899  0.85402057  0.04995833    -0.13700
C259        C  0.47961376  0.85454393  0.02212806     0.08400
C260        C  0.49808493  0.83180244  0.02697547    -0.13700
H261        H  0.50793699  0.79373124  0.06163556     0.12400
H262        H  0.42606340  0.83092483  0.10230138     0.12400
H263        H  0.43987651  0.87192448  0.04701119     0.12400
H264        H  0.50798395  0.82369759  0.50897241     0.12400
C265        C  0.44648024  0.78239149  0.19131632    -0.13700
C266        C  0.46251744  0.80373116  0.15749112     0.08400
C267        C  0.48924089  0.84846783  0.15821705    -0.13700
C268        C  0.49717666  0.87081609  0.19104216    -0.13700
C269        C  0.47977345  0.84922935  0.22428151     0.08400
C270        C  0.45481119  0.80474676  0.22410130    -0.13700
H271        H  0.42715219  0.74807633  0.19230455     0.12400
H272        H  0.50468248  0.86661152  0.13365366     0.12400
H273        H  0.51758097  0.90509029  0.19039188     0.12400
H274        H  0.44108760  0.78699775  0.24921459     0.12400
C275        C  0.37263784  0.74825849  0.12883870    -0.16800
C276        C  0.40390374  0.74254030  0.12156125    -0.32000
H277        H  0.37988095  0.77924228  0.13580974     0.12200
H278        H  0.39411110  0.71004716  0.11739507     0.12800
C279        C  0.22778022  0.73333693  0.13056627    -0.16800
C280        C  0.22052080  0.69442027  0.13091474    -0.32000
H281        H  0.26047026  0.76086415  0.13137244     0.12200
H282        H  0.18790588  0.66672917  0.13060767     0.12800
C283        C  0.10455578  0.71153199  0.05840661    -0.13700
C284        C  0.11499148  0.69478741  0.02934443     0.08400
C285        C  0.15118348  0.69373671  0.03247743    -0.13700
C286        C  0.17581906  0.70792976  0.06438935    -0.13700
C287        C  0.16487973  0.72352654  0.09445084     0.08400
C288        C  0.12968392  0.72656257  0.09010583    -0.13700
H289        H  0.07736479  0.71367289  0.05642515     0.12400
H290        H  0.16072365  0.69613230  0.50936302     0.12400
H291        H  0.20374084  0.70705621  0.06471231     0.12400
H292        H  0.12108374  0.73980912  0.11186159     0.12400
C293        C  0.12150261  0.68199232  0.16384876    -0.13700
C294        C  0.16451004  0.71678386  0.16505876     0.08400
C295        C  0.18408444  0.73006149  0.19987454    -0.13700
C296        C  0.16057725  0.71287461  0.23206288    -0.13700
C297        C  0.11686573  0.68106409  0.23053170     0.08400
C298        C  0.09791289  0.66492416  0.19612528    -0.13700
H299        H  0.10549595  0.66765095  0.13822853     0.12400
H300        H  0.21749936  0.75538413  0.20207704     0.12400
H301        H  0.17656517  0.72576363  0.25804067     0.12400
H302        H  0.06468569  0.63917061  0.19403953     0.12400
C303        C  0.13701081  0.49804280  0.09295972    -0.13700
C304        C  0.15715322  0.49034986  0.12155680     0.08400
C305        C  0.13086221  0.46172320  0.14947630    -0.13700
C306        C  0.08694632  0.44341268  0.14953541    -0.13700
C307        C  0.06778751  0.45241561  0.12145576     0.08400
C308        C  0.09325318  0.47940817  0.09288820    -0.13700
H309        H  0.15557658  0.51901604  0.07048896     0.12400
H310        H  0.14373450  0.45330894  0.17160831     0.12400
H311        H  0.06796218  0.42197797  0.17158224     0.12400
H312        H  0.07961836  0.48704795  0.07076456     0.12400
C313        C  0.22341537  0.56184104  0.11964809    -0.16800
C314        C  0.26356883  0.59472164  0.12656389    -0.32000
H315        H  0.20050226  0.56989058  0.11496005     0.12200
H316        H  0.28805786  0.58958804  0.13350575     0.12800
C317        C  0.19333883  0.47000382  0.06216080    -0.13700
C318        C  0.22198908  0.50219997  0.08704750     0.08400
C319        C  0.26596610  0.52167650  0.08040178    -0.13700
C320        C  0.28039859  0.51126051  0.04953512    -0.13700
C321        C  0.25136375  0.48163556  0.02400533     0.08400
C322        C  0.20782297  0.46090521  0.03072621    -0.13700
H323        H  0.15939685  0.45105381  0.06648435     0.12400
H324        H  0.28955823  0.54416685  0.09951025     0.12400
H325        H  0.31427380  0.52710353  0.04515278     0.12400
H326        H  0.20761167  0.48308216  0.50014275     0.12400
C327        C  0.22208597  0.52441129  0.19075566    -0.13700
C328        C  0.22231717  0.50562390  0.15739395     0.08400
C329        C  0.23558107  0.47761218  0.15861555    -0.13700
C330        C  0.25035907  0.47079770  0.19124767    -0.13700
C331        C  0.25168115  0.49103810  0.22398066     0.08400
C332        C  0.23688153  0.51758038  0.22334691    -0.13700
H333        H  0.21062563  0.54479464  0.19157805     0.12400
H334        H  0.23428282  0.46035270  0.13449820     0.12400
H335        H  0.26038016  0.44924870  0.19071710     0.12400
H336        H  0.23690241  0.53349512  0.24795038     0.12400
C337        C  0.43473114  0.24661652  0.30803068    -0.13700
C338        C  0.41512680  0.23029903  0.34249422     0.08400
C339        C  0.37753701  0.18890085  0.34338908    -0.13700
C340        C  0.36136300  0.16448873  0.31142566    -0.13700
C341        C  0.38138225  0.18104900  0.27750028     0.08400
C342        C  0.41805824  0.22243776  0.27608183    -0.13700
H343        H  0.46270061  0.27866971  0.30569853     0.12400
H344        H  0.35973672  0.17531899  0.36849082     0.12400
H345        H  0.33250358  0.13292721  0.31313965     0.12400
H346        H  0.43421347  0.23611291  0.25028985     0.12400
C347        C  0.37619553  0.21552736  0.47101154    -0.13700
C348        C  0.38524832  0.18541592  0.47885992     0.08400
C349        C  0.40717432  0.17753860  0.45287432    -0.13700
C350        C  0.42159368  0.20082970  0.42032955    -0.13700
C351        C  0.41439023  0.23272752  0.41251139     0.08400
C352        C  0.38956644  0.23808477  0.43799949    -0.13700
H353        H  0.35714447  0.20787525  0.99070506     0.12400
H354        H  0.41396403  0.15390617  0.45802069     0.12400
H355        H  0.43815758  0.19344345  0.40095776     0.12400
H356        H  0.37980612  0.25932953  0.43293943     0.12400
C357        C  0.25951621  0.85838398  0.10540334    -0.13700
C358        C  0.24805021  0.87674363  0.13216346     0.08400
C359        C  0.21677764  0.85037389  0.15795699    -0.13700
C360        C  0.19771068  0.80658078  0.15732393    -0.13700
C361        C  0.21060596  0.78795622  0.13167652     0.08400
C362        C  0.24096211  0.81471477  0.10506346    -0.13700
H363        H  0.28332628  0.87780637  0.08492221     0.12400
H364        H  0.20629078  0.86345902  0.17819675     0.12400
H365        H  0.17241239  0.78766587  0.17675538     0.12400
H366        H  0.25063568  0.80168326  0.08400818     0.12400
N367        N  0.32810872  0.10645800  0.70313599    -0.27700
N368        N  0.34775410  0.14306950  0.68555202    -0.35500
C369        C  0.36932666  0.17464083  0.71001362     0.00700
C370        C  0.36282515  0.15696185  0.74462764     0.06700
C371        C  0.33623472  0.11368079  0.73924812    -0.06400
H372        H  0.38939276  0.20789037  0.70289622     0.07400
H373        H  0.32585537  0.08913518  0.75967435     0.08600
Cu374      Cu  0.34944301  0.14845667  0.62885362     0.44200
Cu375      Cu  0.29842381  0.04858494  0.67713250     0.42000
Cu376      Cu  0.32544005  0.05413467  0.58132379     0.43900
N377        N  0.35595503  0.14563977  0.57261827    -0.35100
N378        N  0.34943701  0.11175999  0.55570245    -0.29300
C379        C  0.35895103  0.12067621  0.51992881    -0.05400
C380        C  0.37154131  0.16201036  0.51391309     0.06800
C381        C  0.36917671  0.17687583  0.54790943     0.00600
H382        H  0.35614170  0.09841538  0.49970727     0.08200
H383        H  0.37744126  0.20836088  0.55439603     0.07300
N384        N  0.29420439  0.99858894  0.61149627    -0.36500
N385        N  0.28301977  0.99651835  0.64619024    -0.28700
C386        C  0.26257527  0.95622205  0.65772825    -0.03900
C387        C  0.26084451  0.93161745  0.62890561     0.04700
C388        C  0.28127401  0.95957035  0.60000028     0.02800
H389        H  0.25076313  0.94590424  0.68535331     0.07900
H390        H  0.28601523  0.95215806  0.57251868     0.06700
C391        C  0.21719254  0.52199943  0.62531465    -0.02900
C392        C  0.18539589  0.74914996  0.63077435    -0.02900
C393        C  0.31323963  0.70936856  0.62795487     0.79800
N394        N  0.28484606  0.72020093  0.63188951    -0.78500
C395        C  0.24257564  0.69064987  0.62689341     0.82300
N396        N  0.22897396  0.65062250  0.61722793    -0.78400
C397        C  0.25686793  0.63939332  0.61372313     0.82400
N398        N  0.29898637  0.66859974  0.61948234    -0.80100
C399        C  0.43770509  0.76907672  0.62352298    -0.02900
N400        N  0.61448554  0.60134725  0.69978017    -0.27700
N401        N  0.63592800  0.58946419  0.68106916    -0.35500
C402        C  0.65169242  0.57433030  0.70447491     0.00700
C403        C  0.63973840  0.57681697  0.73982621     0.06700
C404        C  0.61626730  0.59430829  0.73575284    -0.06400
H405        H  0.67017166  0.56206502  0.69616792     0.07400
H406        H  0.60053087  0.60030489  0.75716872     0.08600
Cu407      Cu  0.64030751  0.59145474  0.62437262     0.44200
Cu408      Cu  0.58230596  0.62453008  0.67467983     0.42000
Cu409      Cu  0.57290893  0.61448301  0.57483734     0.43900
N410        N  0.63342940  0.58733143  0.56785740    -0.35100
N411        N  0.60698606  0.59329434  0.54978839    -0.29300
C412        C  0.60773767  0.58496813  0.51395147    -0.05400
C413        C  0.63653567  0.57390772  0.50931427     0.06800
C414        C  0.65225931  0.57584509  0.54402712     0.00600
H415        H  0.58919272  0.58739001  0.49279923     0.08200
H416        H  0.67482628  0.56827220  0.55159356     0.07300
N417        N  0.54864352  0.64175702  0.60651275    -0.36500
N418        N  0.55308854  0.64633848  0.64258205    -0.28700
C419        C  0.53639730  0.66753273  0.65430741    -0.03900
C420        C  0.52035420  0.67651615  0.62428181     0.04700
C421        C  0.52858479  0.65955853  0.59444209     0.02800
H422        H  0.53590168  0.67568019  0.68268220     0.07900
H423        H  0.52165439  0.66112227  0.56590189     0.06700
N424        N  0.85177451  0.36018906  0.69641930    -0.27700
N425        N  0.81606228  0.34161723  0.67734330    -0.35500
C426        C  0.78307977  0.32673539  0.70051172     0.00700
C427        C  0.79852388  0.33606093  0.73615019     0.06700
C428        C  0.84233573  0.35718017  0.73245835    -0.06400
H429        H  0.75020286  0.30998143  0.69190570     0.07400
H430        H  0.86571325  0.37005574  0.75426502     0.08600
Cu431      Cu  0.81363107  0.33758210  0.62060906     0.44200
Cu432      Cu  0.91121722  0.38929554  0.67138861     0.42000
Cu433      Cu  0.91210607  0.38592378  0.57019271     0.43900
N434        N  0.81694449  0.33977247  0.56385152    -0.35100
N435        N  0.85286508  0.35890650  0.54496711    -0.29300
C436        C  0.84362217  0.35636908  0.50887094    -0.05400
C437        C  0.79980579  0.33399810  0.50515828     0.06800
C438        C  0.78401014  0.32388339  0.54048099     0.00600
H439        H  0.86690173  0.36902026  0.48699556     0.08200
H440        H  0.75095603  0.30671757  0.54865455     0.07300
N441        N  0.96607597  0.41089269  0.60328200    -0.36500
N442        N  0.96585435  0.41362057  0.63955542    -0.28700
C443        C  0.00595504  0.43266134  0.65210646    -0.03900
C444        C  0.03251185  0.44166874  0.62249570     0.04700
C445        C  0.00627396  0.42741299  0.59199397     0.02800
H446        H  0.01499133  0.43873334  0.68076273     0.07900
H447        H  0.01576159  0.42932133  0.56365281     0.06700
N448        N  0.03530886  0.65330550  0.95609851    -0.27700
N449        N  0.06936206  0.66263414  0.93736626    -0.35500
C450        C  0.10248674  0.67819400  0.96048185     0.00700
C451        C  0.08889582  0.67918959  0.99550993     0.06700
C452        C  0.04607531  0.66320479  0.99167059    -0.06400
H453        H  0.13445345  0.68926165  0.95209190     0.07400
H454        H  0.02428880  0.65898754  0.01310840     0.08600
Cu455      Cu  0.07107250  0.65807430  0.88080388     0.44200
Cu456      Cu  0.97616486  0.62854729  0.93203702     0.42000
Cu457      Cu  0.97643196  0.62818993  0.83178130     0.43900
N458        N  0.06831826  0.65979421  0.82409335    -0.35100
N459        N  0.03342414  0.64866205  0.80589151    -0.29300
C460        C  0.04261751  0.65613027  0.76989123    -0.05400
C461        C  0.08558788  0.67326515  0.76524146     0.06800
C462        C  0.10076873  0.67501429  0.80027971     0.00600
H463        H  0.02013786  0.65148036  0.74897318     0.08200
H464        H  0.13323184  0.68750315  0.80815233     0.07300
N465        N  0.92340175  0.60919531  0.86362315    -0.36500
N466        N  0.92258893  0.60772800  0.89993174    -0.28700
C467        C  0.88274915  0.59241594  0.91144233    -0.03900
C468        C  0.85758313  0.58450648  0.88088024     0.04700
C469        C  0.88446059  0.59562625  0.85112498     0.02800
H470        H  0.87307925  0.58822982  0.93992957     0.07900
H471        H  0.87621415  0.59342748  0.82238482     0.06700
N472        N  0.29739967  0.45583204  0.94924478    -0.27700
N473        N  0.26994014  0.46032696  0.93119912    -0.35500
C474        C  0.24990757  0.47035289  0.95500770     0.00700
C475        C  0.26583395  0.47294920  0.98971870     0.06700
C476        C  0.29607589  0.46373689  0.98516370    -0.06400
H477        H  0.22562995  0.47560666  0.94753878     0.07400
H478        H  0.31453886  0.46143117  0.00647611     0.08600
Cu479      Cu  0.26120004  0.45410932  0.87492860     0.44200
Cu480      Cu  0.33171144  0.43507634  0.92374661     0.42000
Cu481      Cu  0.31499690  0.41808879  0.82371187     0.43900
N482        N  0.26069242  0.45214664  0.81816990    -0.35100
N483        N  0.28060348  0.43897971  0.79887539    -0.29300
C484        C  0.27588484  0.44350701  0.76288082    -0.05400
C485        C  0.25193875  0.46061822  0.75935216     0.06800
C486        C  0.24292678  0.46554441  0.79517678     0.00600
H487        H  0.29006489  0.43615418  0.74104481     0.08200
H488        H  0.22534814  0.47854107  0.80417486     0.07300
N489        N  0.34705535  0.39938882  0.85581667    -0.36500
N490        N  0.35390977  0.40612811  0.89156085    -0.28700
C491        C  0.37374400  0.38802243  0.90350023    -0.03900
C492        C  0.37938214  0.36867100  0.87396999     0.04700
C493        C  0.36212212  0.37671333  0.84422540     0.02800
H494        H  0.38145143  0.38715229  0.93194282     0.07900
H495        H  0.35972250  0.36608045  0.81622414     0.06700
C496        C  0.67579990  0.51775845  0.87461782    -0.02900
C497        C  0.56022534  0.33533590  0.87087647     0.79800
N498        N  0.58789640  0.37802623  0.86923288    -0.78500
C499        C  0.63050283  0.39608012  0.86758370     0.82300
N500        N  0.64538270  0.37089286  0.86697574    -0.78400
C501        C  0.61788218  0.32791256  0.86820720     0.82400
N502        N  0.57535015  0.31033937  0.87016712    -0.80100
C503        C  0.43635806  0.25334485  0.87961376    -0.02900
C504        C  0.69438312  0.28826966  0.86988513    -0.02900
N505        N  0.50183580  0.92466203  0.79648582    -0.27700
N506        N  0.49231626  0.89116431  0.81588484    -0.35500
C507        C  0.48013081  0.85849157  0.79311752     0.00700
C508        C  0.48225332  0.87198439  0.75739391     0.06700
C509        C  0.49633441  0.91428379  0.76059949    -0.06400
H510        H  0.47060455  0.82727161  0.80206470     0.07400
H511        H  0.50136564  0.93570829  0.73860648     0.08600
Cu512      Cu  0.49525429  0.89126517  0.87245776     0.44200
Cu513      Cu  0.52042866  0.98185968  0.82111298     0.42000
Cu514      Cu  0.51495477  0.98341711  0.92189129     0.43900
N515        N  0.49431961  0.89485056  0.92895175    -0.35100
N516        N  0.49918966  0.92727537  0.94730250    -0.29300
C517        C  0.49432110  0.91796851  0.98342741    -0.05400
C518        C  0.48671252  0.87812188  0.98778231     0.06800
C519        C  0.48704034  0.86453648  0.95271435     0.00600
H520        H  0.49704824  0.93896904  0.00493668     0.08200
H521        H  0.48155398  0.83443162  0.94492777     0.07300
N522        N  0.53753681  0.03648342  0.88850567    -0.36500
N523        N  0.53988281  0.03559943  0.85228369    -0.28700
C524        C  0.56027419  0.07539278  0.83932975    -0.03900
C525        C  0.57153862  0.10297151  0.86862459     0.04700
C526        C  0.55627410  0.07705960  0.89940592     0.02800
H527        H  0.56790283  0.08368200  0.81067815     0.07900
H528        H  0.56105928  0.08716651  0.92779165     0.06700
C529        C  0.62987673  0.17006363  0.83919538    -0.13700
C530        C  0.59998122  0.14994903  0.86752409     0.08400
C531        C  0.59909321  0.17494752  0.89532723    -0.13700
C532        C  0.62800766  0.21912431  0.89499133    -0.13700
C533        C  0.65952611  0.23969019  0.86735266     0.08400
C534        C  0.65935513  0.21392666  0.83924020    -0.13700
H535        H  0.63182348  0.15171986  0.81756406     0.12400
H536        H  0.57626032  0.16033776  0.91749880     0.12400
H537        H  0.62697143  0.23739421  0.91725662     0.12400
H538        H  0.68264970  0.22683803  0.81746395     0.12400
C539        C  0.63335687  0.29983035  0.86684314    -0.16800
C540        C  0.67479265  0.31456522  0.87130071    -0.32000
H541        H  0.60967204  0.26654845  0.86177642     0.12200
H542        H  0.69684918  0.34857126  0.87457633     0.12800
C543        C  0.51410229  0.31698955  0.87227941    -0.16800
C544        C  0.48512730  0.27596743  0.88070634    -0.32000
H545        H  0.50433072  0.33794642  0.86525717     0.12200
H546        H  0.49709300  0.25638307  0.88575545     0.12800
C547        C  0.64763429  0.46883017  0.87327896    -0.16800
C548        C  0.66070671  0.44277947  0.86738745    -0.32000
H549        H  0.61363291  0.45398478  0.87569524     0.12200
H550        H  0.69385729  0.45526913  0.86234644     0.12800
C551        C  0.39547848  0.28231820  0.84882639    -0.13700
C552        C  0.42310485  0.28531770  0.87669219     0.08400
C553        C  0.43704321  0.31770174  0.90322899    -0.13700
C554        C  0.42325939  0.34499175  0.90236282    -0.13700
C555        C  0.39565938  0.34123235  0.87460047     0.08400
C556        C  0.38238082  0.30990276  0.84773316    -0.13700
H557        H  0.38262411  0.25816277  0.82783592     0.08800
H558        H  0.45794827  0.32111831  0.92523433     0.12400
H559        H  0.43420794  0.36900935  0.92344676     0.12400
H560        H  0.36058933  0.30563452  0.82625857     0.12400
C561        C  0.79667256  0.58208021  0.85235843    -0.13700
C562        C  0.81196770  0.56809173  0.87969463     0.08400
C563        C  0.78340681  0.53813507  0.90530792    -0.13700
C564        C  0.74001434  0.52167230  0.90300164    -0.13700
C565        C  0.72393798  0.53516774  0.87532664     0.08400
C566        C  0.75355615  0.56645081  0.85047318    -0.13700
H567        H  0.81830920  0.60588622  0.83273169     0.12400
H568        H  0.79451189  0.52690482  0.92673899     0.12400
H569        H  0.71872264  0.49859158  0.92323911     0.12400
H570        H  0.74415279  0.57980411  0.82963810     0.12400
C571        C  0.73263608  0.31810808  0.76954889    -0.13700
C572        C  0.77329198  0.32560788  0.77042336     0.08400
C573        C  0.78898258  0.32188923  0.80403859    -0.13700
C574        C  0.76436346  0.31039038  0.83600272    -0.13700
C575        C  0.72359402  0.30340817  0.83556027     0.08400
C576        C  0.70820474  0.30714679  0.80148423    -0.13700
H577        H  0.71952506  0.32070221  0.74410649     0.12400
H578        H  0.81985421  0.32662289  0.80548401     0.12400
H579        H  0.77720199  0.30603642  0.86076211     0.12400
H580        H  0.67666199  0.30074132  0.79939010     0.12400
C581        C  0.77783511  0.35342135  0.94562106    -0.13700
C582        C  0.76993501  0.32240873  0.97115136     0.08400
C583        C  0.73955754  0.27975523  0.96311278    -0.13700
C584        C  0.71667285  0.26817684  0.93024857    -0.13700
C585        C  0.72154019  0.29923470  0.90539268     0.08400
C586        C  0.75382183  0.34209318  0.91338983    -0.13700
H587        H  0.80185329  0.38656703  0.95106250     0.12400
H588        H  0.73408653  0.25524028  0.98204470     0.12400
H589        H  0.69557975  0.23467538  0.92483149     0.12400
H590        H  0.76091923  0.36709375  0.89441628     0.12400
C591        C  0.64733587  0.57831107  0.80835933    -0.13700
C592        C  0.64851374  0.56206814  0.77413647     0.08400
C593        C  0.65841384  0.53171095  0.77287768    -0.13700
C594        C  0.66638532  0.51747234  0.80511589    -0.13700
C595        C  0.66496465  0.53324030  0.83979849     0.08400
C596        C  0.65602550  0.56463872  0.84066035    -0.13700
H597        H  0.64065173  0.60239668  0.81016753     0.12400
H598        H  0.65962721  0.51850375  0.74696516     0.12400
H599        H  0.67435423  0.49435857  0.80293302     0.12400
H600        H  0.65646707  0.57958869  0.86604764     0.12400
C601        C  0.60725505  0.52638887  0.94804899    -0.13700
C602        C  0.63706240  0.55096778  0.97533019     0.08400
C603        C  0.68000439  0.56739274  0.96927092    -0.13700
C604        C  0.69304144  0.55868608  0.93672099    -0.13700
C605        C  0.66309272  0.53114179  0.90992761     0.08400
C606        C  0.61998538  0.51635568  0.91594330    -0.13700
H607        H  0.57394903  0.51403849  0.95196534     0.12400
H608        H  0.71473118  0.59633874  0.48727679     0.12400
H609        H  0.72683899  0.57410121  0.93310829     0.12400
H610        H  0.59593495  0.49730357  0.89551159     0.12400
C611        C  0.51109503  0.73167292  0.65032101    -0.13700
C612        C  0.49984664  0.70005219  0.62412511     0.08400
C613        C  0.46909747  0.69129482  0.59771147    -0.13700
C614        C  0.44936440  0.71315341  0.59793066    -0.13700
C615        C  0.46012928  0.74508851  0.62428033     0.08400
C616        C  0.49206109  0.75421801  0.65017468    -0.13700
H617        H  0.53537262  0.73965859  0.67060190     0.12400
H618        H  0.45986646  0.66712226  0.57707510     0.12400
H619        H  0.42608014  0.70569129  0.57679102     0.12400
H620        H  0.50315011  0.77907468  0.67037516     0.12400
C621        C  0.47786205  0.79920738  0.56116727    -0.13700
C622        C  0.44917560  0.79619897  0.58794025     0.08400
C623        C  0.43207303  0.82055356  0.58179214    -0.13700
C624        C  0.44218071  0.84554176  0.55037668    -0.13700
C625        C  0.46884310  0.84623547  0.52352694     0.08400
C626        C  0.48651153  0.82284784  0.52911383    -0.13700
H627        H  0.49448924  0.78395716  0.56447913     0.12400
H628        H  0.41215828  0.82200630  0.60190979     0.12400
H629        H  0.42858439  0.86384071  0.54679207     0.12400
H630        H  0.51884694  0.83257755  0.00610021     0.12400
C631        C  0.43325636  0.77769692  0.69286015    -0.13700
C632        C  0.44961511  0.79702317  0.65837629     0.08400
C633        C  0.47842278  0.84164029  0.65755651    -0.13700
C634        C  0.48842776  0.86588176  0.68949411    -0.13700
C635        C  0.47116468  0.84633874  0.72343638     0.08400
C636        C  0.44375358  0.80195461  0.72481422    -0.13700
H637        H  0.41224152  0.74352973  0.69505289     0.12400
H638        H  0.49408750  0.85823637  0.63245352     0.12400
H639        H  0.51053236  0.89995537  0.68768535     0.12400
H640        H  0.42997752  0.78582147  0.75057105     0.12400
C641        C  0.35927494  0.74261881  0.63097144    -0.16800
C642        C  0.38928643  0.73511203  0.62344298    -0.32000
H643        H  0.36829976  0.77378454  0.63972658     0.12200
H644        H  0.37816337  0.70247609  0.61778165     0.12800
C645        C  0.22051839  0.74077866  0.63178629    -0.16800
C646        C  0.21075736  0.70094814  0.63056704    -0.32000
H647        H  0.25373174  0.76718289  0.63297784     0.12200
H648        H  0.17748231  0.67467195  0.62918534     0.12800
C649        C  0.10094888  0.72200197  0.55662465    -0.13700
C650        C  0.11332639  0.70697034  0.52761125     0.08400
C651        C  0.14996718  0.70690730  0.53149134    -0.13700
C652        C  0.17306901  0.72016739  0.56410336    -0.13700
C653        C  0.15997981  0.73353123  0.59433923     0.08400
C654        C  0.12463211  0.73615554  0.58916687    -0.13700
H655        H  0.07338206  0.72344215  0.55395353     0.12400
H656        H  0.16035117  0.68148652  0.01030875     0.12400
H657        H  0.20170353  0.72054949  0.56474101     0.12400
H658        H  0.11479341  0.74835899  0.61084046     0.12400
C659        C  0.11467138  0.69272069  0.66419194    -0.13700
C660        C  0.15796122  0.72687514  0.66540312     0.08400
C661        C  0.17752370  0.74012988  0.70024991    -0.13700
C662        C  0.15426355  0.72231704  0.73245996    -0.13700
C663        C  0.11066708  0.69032546  0.73097661     0.08400
C664        C  0.09121768  0.67536499  0.69654687    -0.13700
H665        H  0.09849403  0.67876330  0.63855721     0.12400
H666        H  0.21098511  0.76531625  0.70245349     0.12400
H667        H  0.17034314  0.73451027  0.75853104     0.12400
H668        H  0.05788762  0.64980285  0.69458906     0.12400
C669        C  0.15021108  0.52441136  0.63361909    -0.13700
C670        C  0.16843983  0.50170319  0.62445206     0.08400
C671        C  0.14023132  0.45789133  0.61717470    -0.13700
C672        C  0.09616735  0.43861008  0.61565361    -0.13700
C673        C  0.07890970  0.46202419  0.62341403     0.08400
C674        C  0.10612039  0.50477017  0.63307067    -0.13700
H675        H  0.16948608  0.55715726  0.64221988     0.12400
H676        H  0.15258845  0.43877644  0.61173311     0.12400
H677        H  0.07546603  0.40522026  0.60897709     0.12400
H678        H  0.09320285  0.52305734  0.64006758     0.12400
C679        C  0.24281551  0.57037755  0.62959392    -0.16800
C680        C  0.24039770  0.59518819  0.60496704    -0.32000
H681        H  0.26259679  0.58530467  0.65378667     0.12200
H682        H  0.21917997  0.58078089  0.58155862     0.12800
C683        C  0.21010263  0.49943986  0.55677814    -0.13700
C684        C  0.23428065  0.51455619  0.58946693     0.08400
C685        C  0.27720461  0.52745873  0.58763302    -0.13700
C686        C  0.29407497  0.52220488  0.55552723    -0.13700
C687        C  0.26923693  0.50600746  0.52367570     0.08400
C688        C  0.22731061  0.49512539  0.52452838    -0.13700
H689        H  0.17821078  0.49203972  0.55529977     0.12400
H690        H  0.29765733  0.54133776  0.61144236     0.12400
H691        H  0.32686321  0.53179748  0.55532805     0.12400
H692        H  0.18482194  0.43698599  0.01180352     0.12400
C693        C  0.21765903  0.51422138  0.69473226    -0.13700
C694        C  0.22477522  0.50335854  0.65974894     0.08400
C695        C  0.23709220  0.47460485  0.65826998    -0.13700
C696        C  0.24569206  0.46058956  0.69047041    -0.13700
C697        C  0.24095139  0.47373538  0.72511476     0.08400
C698        C  0.22594394  0.50001785  0.72678622    -0.13700
H699        H  0.20646638  0.53474465  0.69726841     0.12400
H700        H  0.23999409  0.46249963  0.63241805     0.12400
H701        H  0.25582920  0.43921061  0.68811718     0.12400
H702        H  0.22131742  0.51052705  0.75283120     0.12400
C703        C  0.44111530  0.24005605  0.81152645    -0.13700
C704        C  0.42005018  0.22420280  0.84554505     0.08400
C705        C  0.38010793  0.18476173  0.84552162    -0.13700
C706        C  0.36220635  0.16235649  0.81290441    -0.13700
C707        C  0.38301175  0.17918138  0.77932696     0.08400
C708        C  0.42286790  0.21785271  0.77898709    -0.13700
H709        H  0.47092416  0.27077781  0.80968565     0.12400
H710        H  0.36144942  0.17190689  0.87033585     0.12400
H711        H  0.33112959  0.13274543  0.81377140     0.12400
H712        H  0.43976880  0.23136411  0.75344012     0.12400
C713        C  0.37701493  0.20427856  0.97188013    -0.13700
C714        C  0.38725151  0.17494844  0.97918073     0.08400
C715        C  0.41160187  0.16978327  0.95369660    -0.13700
C716        C  0.42713422  0.19503843  0.92219579    -0.13700
C717        C  0.41842076  0.22598972  0.91498395     0.08400
C718        C  0.39147203  0.22871500  0.93995746    -0.13700
H719        H  0.35800339  0.22109342  0.49018191     0.12400
H720        H  0.41948390  0.14690825  0.95853846     0.12400
H721        H  0.44561284  0.18986296  0.90307291     0.12400
H722        H  0.38063280  0.24911940  0.93523660     0.12400
C723        C  0.25534857  0.86721617  0.60476826    -0.13700
C724        C  0.24163996  0.88554769  0.62932765     0.08400
C725        C  0.20916941  0.85949409  0.65434222    -0.13700
C726        C  0.19098850  0.81597668  0.65514231    -0.13700
C727        C  0.20568560  0.79729689  0.63160370     0.08400
C728        C  0.23749024  0.82369384  0.60577751    -0.13700
H729        H  0.28018928  0.88652287  0.58498769     0.12400
H730        H  0.19702952  0.87257821  0.67284610     0.12400
H731        H  0.16471813  0.79719455  0.67378529     0.12400
H732        H  0.24849479  0.81047287  0.58618418     0.12400
loop_ 
_geom_bond_atom_site_label_1 
_geom_bond_atom_site_label_2 
_geom_bond_distance 
_geom_bond_site_symmetry_2 
_ccdc_geom_bond_type 
N1            N2   1.322       .  A
N1            C5   1.346       .  A
N1           Cu9   2.078       .  S
N2            C3   1.343       .  A
N2           Cu8   2.066       .  S
C3            C4   1.384       .  A
C3            H6   1.082       .  S
C4            C5   1.386       .  A
C4          C341   1.478       .  S
C5            H7   1.082       .  S
Cu8          N11   2.065       .  S
Cu9          N19   2.079   1_545  S
Cu10         N12   2.071       .  S
Cu10         N18   2.072   1_545  S
N11          N12   1.321       .  A
N11          C15   1.342       .  A
N12          C13   1.346       .  A
C13          C14   1.385       .  A
C13          H16   1.082   1_554  S
C14          C15   1.382       .  A
C14         C714   1.474   1_554  S
C15          H17   1.082       .  S
N18          N19   1.323       .  A
N18          C22   1.343       .  A
N19          C20   1.346       .  A
C20          C21   1.387       .  A
C20          H23   1.082       .  S
C21          C22   1.384       .  A
C21         C358   1.480       .  S
C22          H24   1.082       .  S
C25         C304   1.557       .  S
C25         C318   1.560       .  S
C25         C328   1.552       .  S
C25         C313   1.544       .  S
C26         C287   1.550       .  S
C26         C294   1.550       .  S
C26         C361   1.547       .  S
C26         C279   1.537       .  S
C27          N28   1.359       .  A
C27          N32   1.361       .  A
C27         C275   1.477       .  S
N28          C29   1.360       .  A
C29          N30   1.356       .  A
C29         C280   1.476       .  S
N30          C31   1.359       .  A
C31          N32   1.355       .  A
C31         C314   1.481       .  S
C33         C249   1.557       .  S
C33         C256   1.560       .  S
C33         C266   1.549       .  S
C33         C276   1.542       .  S
N34          N35   1.320       .  A
N34          C38   1.345       .  A
N34         Cu42   2.073       .  S
N35          C36   1.342       .  A
N35         Cu41   2.062       .  S
C36          C37   1.385       .  A
C36          H39   1.081       .  S
C37          C38   1.388       .  A
C37         C226   1.480       .  S
C38          H40   1.082       .  S
Cu41         N44   2.062       .  S
Cu42         N52   2.074       .  S
Cu43         N45   2.069       .  S
Cu43         N51   2.070       .  S
N44          N45   1.321       .  A
N44          C48   1.342       .  A
N45          C46   1.346       .  A
C46          C47   1.383       .  A
C46          H49   1.082   1_554  S
C47          C48   1.381       .  A
C47         C602   1.470   1_554  S
C48          H50   1.082       .  S
N51          N52   1.322       .  A
N51          C55   1.343       .  A
N52          C53   1.344       .  A
C53          C54   1.385       .  A
C53          H56   1.082       .  S
C54          C55   1.385       .  A
C54         C246   1.479       .  S
C55          H57   1.082       .  S
N58          N59   1.321       .  A
N58          C62   1.346       .  A
N58         Cu66   2.076       .  S
N59          C60   1.344       .  A
N59         Cu65   2.073       .  S
C60          C61   1.386       .  A
C60          H63   1.081       .  S
C61          C62   1.387       .  A
C61         C206   1.483       .  S
C62          H64   1.082       .  S
Cu65         N68   2.073       .  S
Cu66         N76   2.076       .  S
Cu67         N69   2.072       .  S
Cu67         N75   2.073       .  S
N68          N69   1.322       .  A
N68          C72   1.344       .  A
N69          C70   1.346       .  A
C70          C71   1.382       .  A
C70          H73   1.082   1_554  S
C71          C72   1.382       .  A
C71         C582   1.471   1_554  S
C72          H74   1.082       .  S
N75          N76   1.322       .  A
N75          C79   1.344       .  A
N76          C77   1.345       .  A
C77          C78   1.386   1_655  A
C77          H80   1.082   1_655  S
C78          C79   1.387   1_455  A
C78         C307   1.482       .  S
C79          H81   1.082   1_655  S
N82          N83   1.320       .  A
N82          C86   1.346       .  A
N82         Cu90   2.072   1_455  S
N83          C84   1.341       .  A
N83         Cu89   2.060       .  S
C84          C85   1.383       .  A
C84          H87   1.082       .  S
C85          C86   1.386       .  A
C85         C650   1.476       .  S
C86          H88   1.082       .  S
Cu89         N92   2.060       .  S
Cu90        N100   2.073       .  S
Cu91         N93   2.078   1_655  S
Cu91         N99   2.079       .  S
N92          N93   1.320       .  A
N92          C96   1.342       .  A
N93          C94   1.345       .  A
C94          C95   1.389       .  A
C94          H97   1.081       .  S
C95          C96   1.385       .  A
C95         C297   1.482       .  S
C96          H98   1.081       .  S
N99         N100   1.323       .  A
N99         C103   1.346       .  A
N100        C101   1.344       .  A
C101        C102   1.382       .  A
C101        H104   1.082       .  S
C102        C103   1.385       .  A
C102        C196   1.476       .  S
C103        H105   1.082       .  S
N106        N107   1.323       .  A
N106        C110   1.349       .  A
N106       Cu114   2.089       .  S
N107        C108   1.343       .  A
N107       Cu113   2.070       .  S
C108        C109   1.382       .  A
C108        H111   1.082       .  S
C109        C110   1.388       .  A
C109        C687   1.480       .  S
C110        H112   1.082       .  S
Cu113       N116   2.070       .  S
Cu114       N124   2.089       .  S
Cu115       N117   2.083       .  S
Cu115       N123   2.084       .  S
N116        N117   1.320       .  A
N116        C120   1.344       .  A
N117        C118   1.347       .  A
C118        C119   1.392       .  A
C118        H121   1.081       .  S
C119        C120   1.388       .  A
C119        C331   1.491       .  S
C120        H122   1.081       .  S
N123        N124   1.324       .  A
N123        C127   1.344       .  A
N124        C125   1.349       .  A
C125        C126   1.388       .  A
C125        H128   1.082       .  S
C126        C127   1.387       .  A
C126        C189   1.487       .  S
C127        H129   1.081       .  S
C130        C199   1.556       .  S
C130        C229   1.548       .  S
C130        C239   1.557       .  S
C130        C181   1.542       .  S
C131        N132   1.354       .  A
C131        N136   1.365       .  A
C131        C177   1.479       .  S
N132        C133   1.355       .  A
C133        N134   1.357       .  A
C133        C182   1.475       .  S
N134        C135   1.361       .  A
C135        N136   1.363       .  A
C135        C173   1.487       .  S
C137        C186   1.563       .  S
C137        C338   1.547       .  S
C137        C351   1.556       .  S
C137        C178   1.546       .  S
C138        C167   1.561       .  S
C138        C209   1.551       .  S
C138        C219   1.560       .  S
C138        C174   1.547       .  S
N139        N140   1.320       .  A
N139        C143   1.345       .  A
N139       Cu147   2.076       .  S
N140        C141   1.343       .  A
N140       Cu146   2.062       .  S
C141        C142   1.386       .  A
C141        H144   1.081       .  S
C142        C143   1.388       .  A
C142        C269   1.482       .  S
C143        H145   1.081       .  S
Cu146       N149   2.062       .  S
Cu147       N157   2.077   1_565  S
Cu148       N150   2.090       .  S
Cu148       N156   2.091   1_565  S
N149        N150   1.323       .  A
N149        C153   1.342       .  A
N150        C151   1.348       .  A
C151        C152   1.386       .  A
C151        H154   1.082       .  S
C152        C153   1.379       .  A
C152        C625   1.474       .  S
C153        H155   1.082       .  S
N156        N157   1.323       .  A
N156        C160   1.349       .  A
N157        C158   1.343       .  A
C158        C159   1.386       .  A
C158        H161   1.082       .  S
C159        C160   1.389       .  A
C159        C164   1.486       .  S
C160        H162   1.082       .  S
C163        C164   1.401       .  A
C163        C168   1.395       .  A
C163        H169   1.082       .  S
C164        C165   1.404       .  A
C165        C166   1.404       .  A
C165        H170   1.083       .  S
C166        C167   1.416       .  A
C166        H171   1.083       .  S
C167        C168   1.416       .  A
C168        H172   1.079       .  S
C173        C174   1.355       .  D
C173        H175   1.083       .  S
C174        H176   1.084       .  S
C177        C178   1.345       .  D
C177        H179   1.083       .  S
C178        H180   1.085       .  S
C181        C182   1.352       .  D
C181        H183   1.085       .  S
C182        H184   1.083       .  S
C185        C186   1.416       .  A
C185        C190   1.395       .  A
C185        H191   1.080       .  S
C186        C187   1.416       .  A
C187        C188   1.403       .  A
C187        H192   1.083       .  S
C188        C189   1.404       .  A
C188        H193   1.082       .  S
C189        C190   1.401       .  A
C190        H194   1.082       .  S
C195        C196   1.400       .  A
C195        C200   1.397       .  A
C195        H201   1.083       .  S
C196        C197   1.401       .  A
C197        C198   1.396       .  A
C197        H202   1.083       .  S
C198        C199   1.415       .  A
C198        H203   1.083       .  S
C199        C200   1.416       .  A
C200        H204   1.080       .  S
C205        C206   1.403       .  A
C205        C210   1.398       .  A
C205        H211   1.082       .  S
C206        C207   1.402       .  A
C207        C208   1.398       .  A
C207        H212   1.082       .  S
C208        C209   1.415       .  A
C208        H213   1.081       .  S
C209        C210   1.413       .  A
C210        H214   1.082       .  S
C215        C216   1.398       .  A
C215        C220   1.401       .  A
C215        H221   1.083       .  S
C216        C217   1.398       .  A
C216        C437   1.474       .  S
C217        C218   1.397       .  A
C217        H222   1.084       .  S
C218        C219   1.417       .  A
C218        H223   1.078       .  S
C219        C220   1.419       .  A
C220        H224   1.082       .  S
C225        C226   1.402       .  A
C225        C230   1.397       .  A
C225        H231   1.082       .  S
C226        C227   1.403       .  A
C227        C228   1.395       .  A
C227        H232   1.082       .  S
C228        C229   1.412       .  A
C228        H233   1.082       .  S
C229        C230   1.414       .  A
C230        H234   1.081       .  S
C235        C236   1.399       .  A
C235        C240   1.397       .  A
C235        H241   1.083       .  S
C236        C237   1.400       .  A
C236        C413   1.475       .  S
C237        C238   1.397       .  A
C237        H608   1.083       .  S
C238        C239   1.416       .  A
C238        H243   1.078       .  S
C239        C240   1.417       .  A
C240        H244   1.082       .  S
H242        C603   1.083       .  S
C245        C246   1.402       .  A
C245        C250   1.398       .  A
C245        H251   1.082       .  S
C246        C247   1.401       .  A
C247        C248   1.394       .  A
C247        H252   1.082       .  S
C248        C249   1.416       .  A
C248        H253   1.083       .  S
C249        C250   1.415       .  A
C250        H254   1.081       .  S
C255        C256   1.418       .  A
C255        C260   1.396       .  A
C255        H261   1.078       .  S
C256        C257   1.417       .  A
C257        C258   1.398       .  A
C257        H262   1.076       .  S
C258        C259   1.397       .  A
C258        H263   1.083       .  S
C259        C260   1.398       .  A
C259        C518   1.474   1_554  S
C260        H630   1.083       .  S
H264        C626   1.083       .  S
C265        C266   1.412       .  A
C265        C270   1.395       .  A
C265        H271   1.083       .  S
C266        C267   1.413       .  A
C267        C268   1.398       .  A
C267        H272   1.081       .  S
C268        C269   1.403       .  A
C268        H273   1.082       .  S
C269        C270   1.403       .  A
C270        H274   1.082       .  S
C275        C276   1.348       .  D
C275        H277   1.081       .  S
C276        H278   1.085       .  S
C279        C280   1.348       .  D
C279        H281   1.087       .  S
C280        H282   1.087       .  S
C283        C284   1.402       .  A
C283        C288   1.399       .  A
C283        H289   1.083       .  S
C284        C285   1.402       .  A
C284        C451   1.480   1_554  S
C285        C286   1.396       .  A
C285        H656   1.083       .  S
C286        C287   1.414       .  A
C286        H291   1.079       .  S
C287        C288   1.413       .  A
C288        H292   1.083       .  S
H290        C651   1.083       .  S
C293        C294   1.413       .  A
C293        C298   1.398       .  A
C293        H299   1.079       .  S
C294        C295   1.412       .  A
C295        C296   1.394       .  A
C295        H300   1.083       .  S
C296        C297   1.403       .  A
C296        H301   1.081       .  S
C297        C298   1.403       .  A
C298        H302   1.082       .  S
C303        C304   1.417       .  A
C303        C308   1.393       .  A
C303        H309   1.083       .  S
C304        C305   1.414       .  A
C305        C306   1.401       .  A
C305        H310   1.080       .  S
C306        C307   1.404       .  A
C306        H311   1.082       .  S
C307        C308   1.400       .  A
C308        H312   1.082       .  S
C313        C314   1.347       .  D
C313        H315   1.086       .  S
C314        H316   1.082       .  S
C317        C318   1.418       .  A
C317        C322   1.395       .  A
C317        H323   1.078       .  S
C318        C319   1.417       .  A
C319        C320   1.401       .  A
C319        H324   1.076       .  S
C320        C321   1.399       .  A
C320        H325   1.083       .  S
C321        C322   1.397       .  A
C321        C475   1.474   1_554  S
C322        H692   1.084       .  S
H326        C688   1.083       .  S
C327        C328   1.412       .  A
C327        C332   1.399       .  A
C327        H333   1.083       .  S
C328        C329   1.413       .  A
C329        C330   1.399       .  A
C329        H334   1.081       .  S
C330        C331   1.405       .  A
C330        H335   1.081       .  S
C331        C332   1.406       .  A
C332        H336   1.081       .  S
C337        C338   1.413       .  A
C337        C342   1.395       .  A
C337        H343   1.082       .  S
C338        C339   1.414       .  A
C339        C340   1.398       .  A
C339        H344   1.081       .  S
C340        C341   1.402       .  A
C340        H345   1.083       .  S
C341        C342   1.402       .  A
C342        H346   1.082       .  S
C347        C348   1.400       .  A
C347        C352   1.398       .  A
C347        H719   1.083       .  S
C348        C349   1.399       .  A
C348        C380   1.475       .  S
C349        C350   1.396       .  A
C349        H354   1.083       .  S
C350        C351   1.416       .  A
C350        H355   1.082       .  S
C351        C352   1.417       .  A
C352        H356   1.078       .  S
H353        C713   1.083       .  S
C357        C358   1.403       .  A
C357        C362   1.396       .  A
C357        H363   1.082       .  S
C358        C359   1.401       .  A
C359        C360   1.398       .  A
C359        H364   1.083       .  S
C360        C361   1.416       .  A
C360        H365   1.080       .  S
C361        C362   1.411       .  A
C362        H366   1.083       .  S
N367        N368   1.321       .  A
N367        C371   1.343       .  A
N367       Cu375   2.059       .  S
N368        C369   1.343       .  A
N368       Cu374   2.072       .  S
C369        C370   1.385       .  A
C369        H372   1.082       .  S
C370        C371   1.382       .  A
C370        C707   1.473       .  S
C371        H373   1.082       .  S
Cu374       N377   2.072       .  S
Cu375       N385   2.060   1_545  S
Cu376       N378   2.069       .  S
Cu376       N384   2.069   1_545  S
N377        N378   1.322       .  A
N377        C381   1.345       .  A
N378        C379   1.344       .  A
C379        C380   1.383       .  A
C379        H382   1.082       .  S
C380        C381   1.385       .  A
C381        H383   1.082       .  S
N384        N385   1.321       .  A
N384        C388   1.344       .  A
N385        C386   1.342       .  A
C386        C387   1.383       .  A
C386        H389   1.082       .  S
C387        C388   1.385       .  A
C387        C724   1.475       .  S
C388        H390   1.082       .  S
C391        C670   1.555       .  S
C391        C684   1.553       .  S
C391        C694   1.546       .  S
C391        C679   1.535       .  S
C392        C653   1.549       .  S
C392        C660   1.551       .  S
C392        C727   1.541       .  S
C392        C645   1.536       .  S
C393        N394   1.361       .  A
C393        N398   1.363       .  A
C393        C641   1.479       .  S
N394        C395   1.360       .  A
C395        N396   1.353       .  A
C395        C646   1.471       .  S
N396        C397   1.352       .  A
C397        N398   1.358       .  A
C397        C680   1.465       .  S
C399        C615   1.560       .  S
C399        C622   1.560       .  S
C399        C632   1.551       .  S
C399        C642   1.544       .  S
N400        N401   1.321       .  A
N400        C404   1.346       .  A
N400       Cu408   2.078       .  S
N401        C402   1.343       .  A
N401       Cu407   2.069       .  S
C402        C403   1.386       .  A
C402        H405   1.081       .  S
C403        C404   1.388       .  A
C403        C592   1.483       .  S
C404        H406   1.082       .  S
Cu407       N410   2.069       .  S
Cu408       N418   2.079       .  S
Cu409       N411   2.080       .  S
Cu409       N417   2.081       .  S
N410        N411   1.322       .  A
N410        C414   1.344       .  A
N411        C412   1.347       .  A
C412        C413   1.385       .  A
C412        H415   1.082       .  S
C413        C414   1.382       .  A
C414        H416   1.082       .  S
N417        N418   1.323       .  A
N417        C421   1.346       .  A
N418        C419   1.345       .  A
C419        C420   1.385       .  A
C419        H422   1.082       .  S
C420        C421   1.386       .  A
C420        C612   1.481       .  S
C421        H423   1.082       .  S
N424        N425   1.321       .  A
N424        C428   1.348       .  A
N424       Cu432   2.085       .  S
N425        C426   1.344       .  A
N425       Cu431   2.070       .  S
C426        C427   1.385       .  A
C426        H429   1.082       .  S
C427        C428   1.390       .  A
C427        C572   1.485       .  S
C428        H430   1.082       .  S
Cu431       N434   2.069       .  S
Cu432       N442   2.086       .  S
Cu433       N435   2.089       .  S
Cu433       N441   2.090       .  S
N434        N435   1.323       .  A
N434        C438   1.343       .  A
N435        C436   1.350       .  A
C436        C437   1.386       .  A
C436        H439   1.082       .  S
C437        C438   1.380       .  A
C438        H440   1.082       .  S
N441        N442   1.325       .  A
N441        C445   1.348   1_655  A
N442        C443   1.347   1_655  A
C443        C444   1.382       .  A
C443        H446   1.082       .  S
C444        C445   1.383       .  A
C444        C673   1.474       .  S
C445        H447   1.082       .  S
N448        N449   1.322       .  A
N448        C452   1.347       .  A
N448       Cu456   2.079   1_455  S
N449        C450   1.343       .  A
N449       Cu455   2.071       .  S
C450        C451   1.384       .  A
C450        H453   1.082       .  S
C451        C452   1.387       .  A
C452        H454   1.082   1_556  S
Cu455       N458   2.070       .  S
Cu456       N466   2.079       .  S
Cu457       N459   2.070   1_655  S
Cu457       N465   2.071       .  S
N458        N459   1.320       .  A
N458        C462   1.344       .  A
N459        C460   1.345       .  A
C460        C461   1.386       .  A
C460        H463   1.082       .  S
C461        C462   1.386       .  A
C461        C663   1.481       .  S
C462        H464   1.082       .  S
N465        N466   1.323       .  A
N465        C469   1.343       .  A
N466        C467   1.347       .  A
C467        C468   1.385       .  A
C467        H470   1.082       .  S
C468        C469   1.382       .  A
C468        C562   1.476       .  S
C469        H471   1.082       .  S
N472        N473   1.322       .  A
N472        C476   1.349       .  A
N472       Cu480   2.083       .  S
N473        C474   1.342       .  A
N473       Cu479   2.068       .  S
C474        C475   1.380       .  A
C474        H477   1.082       .  S
C475        C476   1.386       .  A
C476        H478   1.082   1_556  S
Cu479       N482   2.068       .  S
Cu480       N490   2.083       .  S
Cu481       N483   2.079       .  S
Cu481       N489   2.081       .  S
N482        N483   1.320       .  A
N482        C486   1.343       .  A
N483        C484   1.347       .  A
C484        C485   1.390       .  A
C484        H487   1.081       .  S
C485        C486   1.388       .  A
C485        C697   1.487       .  S
C486        H488   1.081       .  S
N489        N490   1.324       .  A
N489        C493   1.344       .  A
N490        C491   1.347       .  A
C491        C492   1.386       .  A
C491        H494   1.082       .  S
C492        C493   1.386       .  A
C492        C555   1.483       .  S
C493        H495   1.082       .  S
C496        C565   1.556       .  S
C496        C595   1.548       .  S
C496        C605   1.556       .  S
C496        C547   1.544       .  S
C497        N498   1.355       .  A
C497        N502   1.360       .  A
C497        C543   1.478       .  S
N498        C499   1.358       .  A
C499        N500   1.360       .  A
C499        C548   1.481       .  S
N500        C501   1.362       .  A
C501        N502   1.359       .  A
C501        C539   1.482       .  S
C503        C552   1.561       .  S
C503        C704   1.543       .  S
C503        C717   1.554       .  S
C503        C544   1.544       .  S
C504        C533   1.561       .  S
C504        C575   1.552       .  S
C504        C585   1.557       .  S
C504        C540   1.548       .  S
N505        N506   1.320       .  A
N505        C509   1.347       .  A
N505       Cu513   2.079       .  S
N506        C507   1.343       .  A
N506       Cu512   2.063       .  S
C507        C508   1.385       .  A
C507        H510   1.082       .  S
C508        C509   1.389       .  A
C508        C635   1.482       .  S
C509        H511   1.082       .  S
Cu512       N515   2.063       .  S
Cu513       N523   2.080   1_565  S
Cu514       N516   2.087       .  S
Cu514       N522   2.088   1_565  S
N515        N516   1.323       .  A
N515        C519   1.342       .  A
N516        C517   1.348       .  A
C517        C518   1.386       .  A
C517        H520   1.082   1_556  S
C518        C519   1.380       .  A
C519        H521   1.082       .  S
N522        N523   1.324       .  A
N522        C526   1.349       .  A
N523        C524   1.343       .  A
C524        C525   1.385       .  A
C524        H527   1.082       .  S
C525        C526   1.388       .  A
C525        C530   1.484       .  S
C526        H528   1.082       .  S
C529        C530   1.402       .  A
C529        C534   1.395       .  A
C529        H535   1.082       .  S
C530        C531   1.403       .  A
C531        C532   1.402       .  A
C531        H536   1.083       .  S
C532        C533   1.417       .  A
C532        H537   1.083       .  S
C533        C534   1.415       .  A
C534        H538   1.079       .  S
C539        C540   1.351       .  D
C539        H541   1.082       .  S
C540        H542   1.085       .  S
C543        C544   1.349       .  D
C543        H545   1.083       .  S
C544        H546   1.085       .  S
C547        C548   1.353       .  D
C547        H549   1.084       .  S
C548        H550   1.083       .  S
C551        C552   1.417       .  A
C551        C556   1.393       .  A
C551        H557   1.079       .  S
C552        C553   1.415       .  A
C553        C554   1.402       .  A
C553        H558   1.083       .  S
C554        C555   1.404       .  A
C554        H559   1.082       .  S
C555        C556   1.400       .  A
C556        H560   1.082       .  S
C561        C562   1.400       .  A
C561        C566   1.395       .  A
C561        H567   1.083       .  S
C562        C563   1.400       .  A
C563        C564   1.398       .  A
C563        H568   1.083       .  S
C564        C565   1.416       .  A
C564        H569   1.083       .  S
C565        C566   1.415       .  A
C566        H570   1.080       .  S
C571        C572   1.404       .  A
C571        C576   1.397       .  A
C571        H577   1.082       .  S
C572        C573   1.403       .  A
C573        C574   1.400       .  A
C573        H578   1.083       .  S
C574        C575   1.416       .  A
C574        H579   1.081       .  S
C575        C576   1.412       .  A
C576        H580   1.082       .  S
C581        C582   1.398       .  A
C581        C586   1.397       .  A
C581        H587   1.083       .  S
C582        C583   1.398       .  A
C583        C584   1.397       .  A
C583        H588   1.083       .  S
C584        C585   1.418       .  A
C584        H589   1.078       .  S
C585        C586   1.417       .  A
C586        H590   1.082       .  S
C591        C592   1.403       .  A
C591        C596   1.399       .  A
C591        H597   1.083       .  S
C592        C593   1.403       .  A
C593        C594   1.396       .  A
C593        H598   1.082       .  S
C594        C595   1.412       .  A
C594        H599   1.083       .  S
C595        C596   1.415       .  A
C596        H600   1.081       .  S
C601        C602   1.398       .  A
C601        C606   1.397       .  A
C601        H607   1.083       .  S
C602        C603   1.398       .  A
C603        C604   1.394       .  A
C604        C605   1.416       .  A
C604        H609   1.079       .  S
C605        C606   1.418       .  A
C606        H610   1.082       .  S
C611        C612   1.402       .  A
C611        C616   1.399       .  A
C611        H617   1.083       .  S
C612        C613   1.401       .  A
C613        C614   1.398       .  A
C613        H618   1.083       .  S
C614        C615   1.417       .  A
C614        H619   1.083       .  S
C615        C616   1.416       .  A
C616        H620   1.080       .  S
C621        C622   1.418       .  A
C621        C626   1.397       .  A
C621        H627   1.078       .  S
C622        C623   1.417       .  A
C623        C624   1.398       .  A
C623        H628   1.076       .  S
C624        C625   1.397       .  A
C624        H629   1.083       .  S
C625        C626   1.399       .  A
C631        C632   1.412       .  A
C631        C636   1.397       .  A
C631        H637   1.083       .  S
C632        C633   1.415       .  A
C633        C634   1.398       .  A
C633        H638   1.081       .  S
C634        C635   1.402       .  A
C634        H639   1.083       .  S
C635        C636   1.404       .  A
C636        H640   1.082       .  S
C641        C642   1.349       .  D
C641        H643   1.083       .  S
C642        H644   1.085       .  S
C645        C646   1.346       .  D
C645        H647   1.087       .  S
C646        H648   1.087       .  S
C649        C650   1.402       .  A
C649        C654   1.399       .  A
C649        H655   1.083       .  S
C650        C651   1.400       .  A
C651        C652   1.392       .  A
C652        C653   1.415       .  A
C652        H657   1.079       .  S
C653        C654   1.413       .  A
C654        H658   1.083       .  S
C659        C660   1.413       .  A
C659        C664   1.399       .  A
C659        H665   1.079       .  S
C660        C661   1.412       .  A
C661        C662   1.394       .  A
C661        H666   1.083       .  S
C662        C663   1.402       .  A
C662        H667   1.082       .  S
C663        C664   1.403       .  A
C664        H668   1.083       .  S
C669        C670   1.418       .  A
C669        C674   1.399       .  A
C669        H675   1.080       .  S
C670        C671   1.413       .  A
C671        C672   1.401       .  A
C671        H676   1.083       .  S
C672        C673   1.400       .  A
C672        H677   1.083       .  S
C673        C674   1.398       .  A
C674        H678   1.083       .  S
C679        C680   1.343       .  D
C679        H681   1.088       .  S
C680        H682   1.086       .  S
C683        C684   1.413       .  A
C683        C688   1.397       .  A
C683        H689   1.080       .  S
C684        C685   1.415       .  A
C685        C686   1.400       .  A
C685        H690   1.083       .  S
C686        C687   1.400       .  A
C686        H691   1.083       .  S
C687        C688   1.402       .  A
C693        C694   1.411       .  A
C693        C698   1.395       .  A
C693        H699   1.083       .  S
C694        C695   1.413       .  A
C695        C696   1.401       .  A
C695        H700   1.080       .  S
C696        C697   1.405       .  A
C696        H701   1.082       .  S
C697        C698   1.404       .  A
C698        H702   1.081       .  S
C703        C704   1.413       .  A
C703        C708   1.393       .  A
C703        H709   1.081       .  S
C704        C705   1.415       .  A
C705        C706   1.396       .  A
C705        H710   1.081       .  S
C706        C707   1.401       .  A
C706        H711   1.083       .  S
C707        C708   1.400       .  A
C708        H712   1.083       .  S
C713        C714   1.399       .  A
C713        C718   1.395       .  A
C714        C715   1.399       .  A
C715        C716   1.398       .  A
C715        H720   1.083       .  S
C716        C717   1.417       .  A
C716        H721   1.082       .  S
C717        C718   1.415       .  A
C718        H722   1.078       .  S
C723        C724   1.402       .  A
C723        C728   1.396       .  A
C723        H729   1.082       .  S
C724        C725   1.401       .  A
C725        C726   1.394       .  A
C725        H730   1.083       .  S
C726        C727   1.413       .  A
C726        H731   1.081       .  S
C727        C728   1.412       .  A
C728        H732   1.083       .  S
