geometry optimzed in LAMMPS
_audit_creation_date              2020-12-01 
_audit_creation_method            'lammps2cif' 
_symmetry_space_group_name_H-M    'P1' 
_symmetry_Int_Tables_number       1 
_symmetry_cell_setting            triclinic 
loop_ 
_symmetry_equiv_pos_as_xyz 
  x,y,z 
_cell_length_a                    33.78143771 
_cell_length_b                    33.81363966168491 
_cell_length_c                    33.53470522827982 
_cell_angle_alpha                 89.69583009712507 
_cell_angle_beta                  89.95654697992545 
_cell_angle_gamma                 89.53724679316144 
loop_ 
_atom_site_label 
_atom_site_type_symbol 
_atom_site_fract_x 
_atom_site_fract_y 
_atom_site_fract_z 
_atom_site_charge 
O1          O  0.22522324  0.75792132  0.58994824    -0.81000
C2          C  0.09094248  0.77742449  0.49845269     0.98400
O3          O  0.10399235  0.74392499  0.51030390    -0.70100
O4          O  0.17741688  0.73091902  0.48650238    -0.73700
Al5        Al  0.15340147  0.72967222  0.53769403     1.49000
C6          C  0.21455717  0.73238245  0.48353934     0.93600
O7          O  0.20980394  0.83090337  0.50761856    -0.79900
O8          O  0.15228103  0.82521271  0.61141340    -0.73500
Al9        Al  0.21651721  0.79294778  0.54849497     1.90100
O10         O  0.15717934  0.85921520  0.53431880    -0.72500
O11         O  0.09569694  0.77862623  0.59049326    -0.72400
O12         O  0.10311408  0.80883897  0.51370270    -0.78000
O13         O  0.12860465  0.72268236  0.58778915    -0.76200
O14         O  0.16624368  0.77952009  0.54840468    -1.12400
O15         O  0.20197707  0.70537627  0.56167425    -0.71600
C16         C  0.22815868  0.72183871  0.58318062     0.99200
C17         C  0.18629613  0.86005843  0.50992618     0.95600
Al18       Al  0.12982439  0.81527219  0.56130354     1.55600
O19         O  0.23375913  0.75432144  0.50735632    -0.76200
C20         C  0.10244460  0.74398844  0.60398825     0.99700
C21         C  0.18741118  0.83451931  0.61807105     0.94600
O22         O  0.21301236  0.83231658  0.59052338    -0.81500
O23         O  0.28603457  0.87589926  0.76111944    -0.81000
C24         C  0.31811386  0.96042451  0.90233628     0.98400
O25         O  0.28385841  0.95100673  0.89003922    -0.70100
O26         O  0.26658766  0.97556839  0.81719634    -0.73700
Al27       Al  0.26577794  0.92482076  0.84145686     1.49000
C28         C  0.26705207  0.97962513  0.77983471     0.93600
O29         O  0.36605350  0.95102238  0.77927223    -0.79900
O30         O  0.35891844  0.84695325  0.83343409    -0.73500
Al31       Al  0.32494441  0.91334051  0.77247675     1.90100
O32         O  0.39483383  0.92154641  0.83022690    -0.72500
O33         O  0.31650080  0.86682850  0.89422653    -0.72400
O34         O  0.34819564  0.94290262  0.88878047    -0.78000
O35         O  0.25854981  0.87541449  0.86665796    -0.76200
O36         O  0.31410357  0.91172740  0.82441524    -1.12400
O37         O  0.23752302  0.90234826  0.79574805    -0.71600
C38         C  0.24959338  0.88065480  0.76733192     0.99200
C39         C  0.39575506  0.94680099  0.80196914     0.95600
Al40       Al  0.35153676  0.89601626  0.85881560     1.55600
O41         O  0.28839194  0.95648614  0.75915457    -0.76200
C42         C  0.28092673  0.85611066  0.88972838     0.99700
C43         C  0.36514112  0.84098759  0.79709840     0.94600
O44         O  0.36161209  0.86908718  0.77222286    -0.81500
O45         O  0.40793938  0.69276914  0.69702545    -0.81000
C46         C  0.49587695  0.55249485  0.67851361     0.98400
O47         O  0.48381985  0.56559658  0.71205800    -0.70100
O48         O  0.50567559  0.63784063  0.72950791    -0.73700
Al49       Al  0.45524424  0.61441507  0.72669494     1.49000
C50         C  0.50973240  0.67478010  0.72902993     0.93600
O51         O  0.49278338  0.67150174  0.62877563    -0.79900
O52         O  0.38641087  0.62044379  0.62844082    -0.73500
Al53       Al  0.45032467  0.68040652  0.66408271     1.90100
O54         O  0.46366853  0.62283909  0.59705796    -0.72500
O55         O  0.40265840  0.56020312  0.67315773    -0.72400
O56         O  0.48080063  0.56502651  0.64657957    -0.78000
O57         O  0.40556683  0.58995800  0.73055684    -0.76200
O58         O  0.44719548  0.62951858  0.67678380    -1.12400
O59         O  0.42916554  0.66157954  0.75052796    -0.71600
C60         C  0.40897429  0.68941002  0.73429217     0.99200
C61         C  0.48930022  0.65043407  0.59799761     0.95600
Al62       Al  0.43457895  0.59476688  0.63919659     1.55600
O63         O  0.48836720  0.69526222  0.70554814    -0.76200
C64         C  0.38856407  0.56614570  0.70771868     0.99700
C65         C  0.38259002  0.65608904  0.61884491     0.94600
O66         O  0.41194684  0.67899155  0.62145616    -0.81500
O67         O  0.79307724  0.58183337  0.20087992    -0.81000
C68         C  0.82017112  0.49692679  0.06060706     0.98400
O69         O  0.78620829  0.50661396  0.07364054    -0.70100
O70         O  0.76919581  0.48266702  0.14600526    -0.73700
Al71       Al  0.76929300  0.53354500  0.12166663     1.49000
C72         C  0.76908207  0.47850844  0.18332813     0.93600
O73         O  0.86780727  0.50201116  0.18140832    -0.79900
O74         O  0.86498808  0.60805237  0.12964270    -0.73500
Al75       Al  0.82949438  0.54206777  0.18950258     1.90100
O76         O  0.89758217  0.53109279  0.13058976    -0.72500
O77         O  0.82044857  0.59180858  0.06910703    -0.72400
O78         O  0.85048008  0.51460526  0.07230921    -0.78000
O79         O  0.76232904  0.58272435  0.09594475    -0.76200
O80         O  0.81803296  0.54499132  0.13780701    -1.12400
O81         O  0.74283139  0.55751402  0.16759333    -0.71600
C82         C  0.75638822  0.57867222  0.19557044     0.99200
C83         C  0.89709923  0.50493931  0.15812066     0.95600
Al84       Al  0.85534469  0.56007246  0.10318963     1.55600
O85         O  0.79065771  0.50114769  0.20395258    -0.76200
C86         C  0.78444500  0.60207508  0.07297298     0.99700
C87         C  0.87333581  0.61218197  0.16576422     0.94600
O88         O  0.86911554  0.58342043  0.18971121    -0.81500
O89         O  0.73110584  0.69813196  0.37407416    -0.81000
C90         C  0.59528353  0.67752433  0.46416310     0.98400
O91         O  0.60724884  0.71085317  0.45117353    -0.70100
O92         O  0.68014770  0.72440676  0.47585864    -0.73700
Al93       Al  0.65717703  0.72517001  0.42465645     1.49000
C94         C  0.71730275  0.72372954  0.47922921     0.93600
O95         O  0.71658334  0.62457239  0.45622621    -0.79900
O96         O  0.65899424  0.62878625  0.35283258    -0.73500
Al97       Al  0.72240133  0.66275029  0.41536471     1.90100
O98         O  0.66493205  0.59567184  0.42965562    -0.72500
O99         O  0.60136521  0.67506347  0.37249297    -0.72400
O100        O  0.60944687  0.64600259  0.45038503    -0.78000
O101        O  0.63370105  0.73088687  0.37409183    -0.76200
O102        O  0.67172239  0.67543368  0.41486576    -1.12400
O103        O  0.70549876  0.75026867  0.40164244    -0.71600
C104        C  0.73282518  0.73427887  0.38094037     0.99200
C105        C  0.69428677  0.59488752  0.45368445     0.95600
Al106      Al  0.63631075  0.63909236  0.40255549     1.55600
O107        O  0.73761719  0.70143035  0.45644981    -0.76200
C108        C  0.60831967  0.70916827  0.35788445     0.99700
C109        C  0.69455550  0.62079994  0.34606972     0.94600
O110        O  0.72015981  0.62361839  0.37345743    -0.81500
O111        O  0.91121681  0.76555440  0.26457652    -0.81000
C112        C  0.99377517  0.90753843  0.27855413     0.98400
O113        O  0.98178099  0.89343093  0.24548147    -0.70100
O114        O  0.00753551  0.82100685  0.23062333    -0.73700
Al115      Al  0.95592513  0.84303165  0.23241869     1.49000
C116        C  0.01266997  0.78411256  0.23208193     0.93600
O117        O  0.99529899  0.78976928  0.33124372    -0.79900
O118        O  0.88717542  0.83883644  0.33128818    -0.73500
Al119      Al  0.95318480  0.77915654  0.29690984     1.90100
O120        O  0.96475688  0.83814455  0.36262782    -0.72500
O121        O  0.90249862  0.89789105  0.28440637    -0.72400
O122        O  0.98021258  0.89480727  0.31103949    -0.78000
O123        O  0.90506639  0.86580607  0.22803946    -0.76200
O124        O  0.94845894  0.82937756  0.28284195    -1.12400
O125        O  0.93252947  0.79387747  0.20988176    -0.71600
C126        C  0.91358183  0.76610883  0.22727945     0.99200
C127        C  0.99106377  0.81074082  0.36194482     0.95600
Al128      Al  0.93490540  0.86482361  0.31954286     1.55600
O129        O  0.99179321  0.76393223  0.25601062    -0.76200
C130        C  0.88806619  0.89046938  0.25033135     0.99700
C131        C  0.88462024  0.80339765  0.34206999     0.94600
O132        O  0.91475178  0.78099321  0.33965577    -0.81500
O133        O  0.61288903  0.19560255  0.75543022    -0.81000
C134        C  0.52964543  0.05434399  0.78195096     0.98400
O135        O  0.54078193  0.06721711  0.74805284    -0.70100
O136        O  0.51503872  0.13909275  0.73077838    -0.73700
Al137      Al  0.56650803  0.11622093  0.73131196     1.49000
C138        C  0.50979074  0.17595848  0.73244266     0.93600
O139        O  0.53469075  0.17479783  0.83094397    -0.79900
O140        O  0.64083271  0.12356946  0.82720832    -0.73500
Al141      Al  0.57387933  0.18312099  0.79219009     1.90100
O142        O  0.56535007  0.12600729  0.86179666    -0.72500
O143        O  0.62215699  0.06299343  0.78342542    -0.72400
O144        O  0.54506482  0.06774875  0.81332534    -0.78000
O145        O  0.61665149  0.09222925  0.72546203    -0.76200
O146        O  0.57711979  0.13212886  0.78060076    -1.12400
O147        O  0.58946045  0.16289345  0.70443291    -0.71600
C148        C  0.61032189  0.19076197  0.71842439     0.99200
C149        C  0.54014858  0.15425618  0.86196799     0.95600
Al150      Al  0.59194447  0.09773540  0.81839027     1.55600
O151        O  0.53228843  0.19645484  0.75417436    -0.76200
C152        C  0.63449804  0.06825806  0.74807997     0.99700
C153        C  0.64486182  0.15954545  0.83546878     0.94600
O154        O  0.61583127  0.18314044  0.83138167    -0.81500
O155        O  0.79401910  0.26230357  0.88609011    -0.81000
C156        C  0.93874735  0.26974466  0.96725387     0.98400
O157        O  0.92353023  0.23740660  0.95538727    -0.70100
O158        O  0.85089977  0.22527818  0.98087511    -0.73700
Al159      Al  0.87258804  0.22668706  0.92883485     1.49000
C160        C  0.81449772  0.23015020  0.98734680     0.93600
O161        O  0.82539742  0.32827438  0.96864996    -0.79900
O162        O  0.87189611  0.32429116  0.85919223    -0.73500
Al163      Al  0.81148754  0.29417876  0.92702937     1.90100
O164        O  0.87395986  0.35660211  0.93611262    -0.72500
O165        O  0.92964834  0.27570766  0.87578449    -0.72400
O166        O  0.92721767  0.30238280  0.95320058    -0.78000
O167        O  0.89544416  0.22127747  0.87730012    -0.76200
O168        O  0.86086981  0.27734601  0.92133789    -1.12400
O169        O  0.82256886  0.20688387  0.90498405    -0.71600
C170        C  0.79466319  0.22519409  0.88672319     0.99200
C171        C  0.84760613  0.35762878  0.96331560     0.95600
Al172      Al  0.89787551  0.31196874  0.90731798     1.55600
O173        O  0.79534565  0.25527093  0.96678836    -0.76200
C174        C  0.92160109  0.24227482  0.86108344     0.99700
C175        C  0.83685892  0.33672129  0.85668336     0.94600
O176        O  0.81459602  0.33565737  0.88712547    -0.81500
O177        O  0.73393016  0.36801344  0.69873108    -0.81000
C178        C  0.71937825  0.46077630  0.56113114     0.98400
O179        O  0.75208192  0.44855156  0.57575730    -0.70100
O180        O  0.76034602  0.47100985  0.65094920    -0.73700
Al181      Al  0.76381964  0.42091033  0.62631341     1.49000
C182        C  0.75634520  0.47361756  0.68824290     0.93600
O183        O  0.65964022  0.44826728  0.67969695    -0.79900
O184        O  0.66833128  0.34735849  0.62021590    -0.73500
Al185      Al  0.69790596  0.40829795  0.68762875     1.90100
O186        O  0.63393316  0.42384846  0.62509160    -0.72500
O187        O  0.71778338  0.36993577  0.56594687    -0.72400
O188        O  0.68730196  0.44626461  0.57303536    -0.78000
O189        O  0.77234040  0.37166888  0.60129820    -0.76200
O190        O  0.71358068  0.40952873  0.63741528    -1.12400
O191        O  0.78645349  0.39713870  0.67582665    -0.71600
C192        C  0.76986301  0.37573040  0.70224132     0.99200
C193        C  0.63169681  0.44720025  0.65481923     0.95600
Al194      Al  0.67945821  0.39794843  0.59903530     1.55600
O195        O  0.73412379  0.44942354  0.70657402    -0.76200
C196        C  0.75201225  0.35623908  0.57404766     0.99700
C197        C  0.65870521  0.33945599  0.65543982     0.92200
O198        O  0.65998040  0.36603601  0.68186027    -0.81500
O199        O  0.30107932  0.19461252  0.08466062    -0.81000
C200        C  0.44266387  0.18282857  0.00007921     0.98400
O201        O  0.42803548  0.21522661  0.01275999    -0.70100
O202        O  0.35534173  0.23117684  0.98856167    -0.73700
Al203      Al  0.37831562  0.22727955  0.04003967     1.49000
C204        C  0.31853616  0.22846836  0.98325524     0.93600
O205        O  0.32608129  0.12717469  0.00024592    -0.79900
O206        O  0.37693937  0.12816867  0.10769258    -0.73500
Al207      Al  0.31538780  0.16246365  0.04261410     1.90100
O208        O  0.37622530  0.09745326  0.02993207    -0.72500
O209        O  0.43496665  0.17491536  0.09222971    -0.72400
O210        O  0.43132382  0.15008463  0.01359781    -0.78000
O211        O  0.40169741  0.23037459  0.09088656    -0.76200
O212        O  0.36550036  0.17684546  0.04674762    -1.12400
O213        O  0.33016140  0.24893151  0.06505557    -0.71600
C214        C  0.30272977  0.23162219  0.08422749     0.99200
C215        C  0.34813238  0.09702131  0.00442895     0.95600
Al216      Al  0.40202249  0.14055221  0.05957216     1.55600
O217        O  0.29931002  0.20329892  0.00360130    -0.76200
C218        C  0.42709682  0.20838836  0.10733800     0.99700
C219        C  0.34189509  0.11684902  0.11115401     0.94600
O220        O  0.31815354  0.12047579  0.08210191    -0.81500
O221        O  0.12305452  0.26155946  0.20531916    -0.81000
C222        C  0.03102891  0.39697689  0.17768161     0.98400
O223        O  0.04374616  0.38631422  0.21181024    -0.70100
O224        O  0.02165283  0.31388068  0.23035433    -0.73700
Al225      Al  0.07201651  0.33858369  0.22900688     1.49000
C226        C  0.01812493  0.27682973  0.22864261     0.93600
O227        O  0.04172598  0.27677855  0.13124800    -0.79900
O228        O  0.14516683  0.33248160  0.13274553    -0.73500
Al229      Al  0.08235073  0.27106904  0.16918555     1.90100
O230        O  0.06897133  0.32636935  0.09912221    -0.72500
O231        O  0.12484639  0.39276975  0.17545544    -0.72400
O232        O  0.04733266  0.38389374  0.14665290    -0.78000
O233        O  0.12141172  0.36403283  0.23378830    -0.76200
O234        O  0.08280088  0.32224595  0.17988811    -1.12400
O235        O  0.09713156  0.29313476  0.25610470    -0.71600
C236        C  0.11944492  0.26599114  0.24228457     0.99200
C237        C  0.04467455  0.29762885  0.10012397     0.95600
Al238      Al  0.09536769  0.35636833  0.14144329     1.55600
O239        O  0.04227093  0.25679476  0.20794124    -0.76200
C240        C  0.13866465  0.38745723  0.21032811     0.99700
C241        C  0.15109909  0.29652744  0.12582129     0.94600
O242        O  0.12302777  0.27222214  0.12907022    -0.81500
O243        O  0.23756996  0.07881830  0.25990102    -0.81000
C244        C  0.21178547  0.99316241  0.40105872     0.98400
O245        O  0.24570256  0.00403971  0.38863408    -0.70100
O246        O  0.25754303  0.97762104  0.31528181    -0.73700
Al247      Al  0.26134717  0.02873931  0.33766747     1.49000
C248        C  0.25575522  0.97326547  0.27798486     0.93600
O249        O  0.15870662  0.00486517  0.28015549    -0.79900
O250        O  0.16882372  0.10670884  0.33599077    -0.73500
Al251      Al  0.19924774  0.04169658  0.27218785     1.90100
O252        O  0.13144631  0.03333281  0.33206744    -0.72500
O253        O  0.21447702  0.08476347  0.39309285    -0.72400
O254        O  0.18115414  0.00937532  0.38722526    -0.78000
O255        O  0.27030624  0.07890048  0.36031513    -0.76200
O256        O  0.21233146  0.04218987  0.32317638    -1.12400
O257        O  0.28747580  0.04892931  0.28888586    -0.71600
C258        C  0.27352556  0.06975055  0.26043761     0.99200
C259        C  0.12935503  0.00940066  0.30292002     0.95600
Al260      Al  0.17678514  0.05712911  0.35934672     1.55600
O261        O  0.23458907  0.99716283  0.25749812    -0.76200
C262        C  0.24899842  0.09725729  0.38502050     0.99700
C263        C  0.16111752  0.11401541  0.30024769     0.94600
O264        O  0.16344798  0.08700221  0.27422995    -0.81500
O265        O  0.11636591  0.17816865  0.62508487    -0.81000
C266        C  0.02668005  0.05513405  0.68299857     0.98400
O267        O  0.04138521  0.06754020  0.65086574    -0.70100
O268        O  0.06272496  0.12225840  0.59941146    -0.73700
Al269      Al  0.08890488  0.09471079  0.64376622     1.49000
C270        C  0.03856072  0.15142445  0.59782837     0.93600
O271        O  0.03383859  0.19771520  0.70425433    -0.79900
O272        O  0.08942863  0.16679874  0.75361444    -0.73500
Al273      Al  0.07467507  0.18132051  0.66522200     1.90100
O274        O  0.01491443  0.14112073  0.72912794    -0.72500
O275        O  0.11628147  0.09389521  0.73618441    -0.72400
O276        O  0.03908432  0.06813225  0.71637078    -0.78000
O277        O  0.11827376  0.06050573  0.68057433    -0.76200
O278        O  0.07583112  0.13103113  0.67947669    -1.12400
O279        O  0.13831354  0.11767410  0.63331167    -0.71600
C280        C  0.14404729  0.15274750  0.62274170     0.99200
C281        C  0.01102705  0.17811780  0.72706241     0.95600
Al282      Al  0.06595430  0.11792046  0.72989407     1.55600
O283        O  0.03428446  0.17379719  0.62756823    -0.76200
C284        C  0.13274067  0.06815572  0.71460412     0.99700
C285        C  0.11037986  0.19321735  0.73653730     0.94600
O286        O  0.11544267  0.19147441  0.69977034    -0.81500
O287        O  0.15570586  0.37478399  0.77603897    -0.81000
C288        C  0.21068521  0.46202584  0.90047261     0.98400
O289        O  0.17950078  0.44566912  0.88884548    -0.70100
O290        O  0.12965105  0.42578165  0.83240757    -0.73700
Al291      Al  0.17365319  0.39885204  0.86023141     1.49000
C292        C  0.12881992  0.45104613  0.80394085     0.93600
O293        O  0.23457391  0.45457394  0.75600568    -0.79900
O294        O  0.28318385  0.39751947  0.79086351    -0.73500
Al295      Al  0.19595840  0.41498041  0.77304075     1.90100
O296        O  0.25893247  0.47351554  0.81268673    -0.72500
O297        O  0.26635946  0.37429274  0.86440391    -0.72400
O298        O  0.24419952  0.45149235  0.88650369    -0.78000
O299        O  0.20973453  0.36899085  0.89514181    -0.76200
O300        O  0.20973293  0.41265746  0.82404619    -1.12400
O301        O  0.16426175  0.34985669  0.83558926    -0.71600
C302        C  0.15375746  0.34577500  0.79998684     0.99200
C303        C  0.25705634  0.47726287  0.77538299     0.95600
Al304      Al  0.25914838  0.42323231  0.83790585     1.55600
O305        O  0.15899821  0.45579055  0.78222691    -0.76200
C306        C  0.24511300  0.35714617  0.88990931     0.99700
C307        C  0.26761356  0.37619064  0.76392501     0.94600
O308        O  0.23065515  0.37431179  0.76055522    -0.81500
O309        O  0.30201366  0.32258978  0.58541947    -0.81000
C310        C  0.43259433  0.27585399  0.49708388     0.98400
O311        O  0.41677198  0.30677704  0.51060638    -0.70100
O312        O  0.35929582  0.35508458  0.53197797    -0.73700
Al313      Al  0.38780624  0.31149349  0.55804473     1.49000
C314        C  0.33085731  0.35597025  0.50711416     0.93600
O315        O  0.29091550  0.24922386  0.49714275    -0.79900
O316        O  0.32276114  0.19849691  0.55309085    -0.73500
Al317      Al  0.30234372  0.28575239  0.54113864     1.90100
O318        O  0.34982806  0.22761412  0.48076659    -0.72500
O319        O  0.39206946  0.21913676  0.58458348    -0.72400
O320        O  0.42098660  0.24214049  0.50923800    -0.78000
O321        O  0.42275412  0.27578631  0.58784008    -0.76200
O322        O  0.35357973  0.27444989  0.54381905    -1.12400
O323        O  0.36315398  0.31999442  0.60707730    -0.71600
C324        C  0.32719928  0.32697426  0.61308803     0.99200
C325        C  0.31309139  0.22873052  0.47436714     0.95600
Al326      Al  0.37041053  0.22577690  0.53298305     1.55600
O327        O  0.30958008  0.32586116  0.50266082    -0.76200
C328        C  0.41642776  0.24135325  0.60177830     0.99700
C329        C  0.29420697  0.21144335  0.57415633     0.94600
O330        O  0.28996944  0.24783327  0.57962235    -0.81500
O331        O  0.65041952  0.07714290  0.18250644    -0.81000
C332        C  0.71083369  0.99454055  0.05661626     0.98400
O333        O  0.67919789  0.01084364  0.06778950    -0.70100
O334        O  0.62696910  0.02792472  0.12332402    -0.73700
Al335      Al  0.67156367  0.05626307  0.09822051     1.49000
C336        C  0.62608805  0.00163606  0.15084079     0.93600
O337        O  0.73005922  0.99729240  0.20195577    -0.79900
O338        O  0.77890406  0.05481165  0.17133110    -0.73500
Al339      Al  0.69139357  0.03706289  0.18531051     1.90100
O340        O  0.75652442  0.97954632  0.14555273    -0.72500
O341        O  0.76393707  0.08081172  0.09860369    -0.72400
O342        O  0.74382087  0.00441159  0.07197363    -0.78000
O343        O  0.70819054  0.08763871  0.06640568    -0.76200
O344        O  0.70675285  0.04108210  0.13496324    -1.12400
O345        O  0.66065009  0.10415913  0.12439066    -0.71600
C346        C  0.64916984  0.10712647  0.15977868     0.99200
C347        C  0.75376043  0.97539400  0.18275126     0.95600
Al348      Al  0.75679047  0.03085965  0.12236067     1.55600
O349        O  0.65577264  0.99655062  0.17322292    -0.76200
C350        C  0.74285705  0.09961542  0.07404682     0.99700
C351        C  0.76232694  0.07511085  0.19877346     0.94600
O352        O  0.72517994  0.07727243  0.20069425    -0.81500
O353        O  0.80853038  0.12720122  0.37693729    -0.81000
C354        C  0.93921382  0.17834768  0.45959436     0.98400
O355        O  0.92521276  0.14693243  0.44575297    -0.70100
O356        O  0.86876141  0.09756015  0.42856303    -0.73700
Al357      Al  0.89478359  0.14045271  0.39976908     1.49000
C358        C  0.84117026  0.09711049  0.45438545     0.93600
O359        O  0.79772708  0.20369927  0.46141741    -0.79900
O360        O  0.82874879  0.25273992  0.40289559    -0.73500
Al361      Al  0.80936426  0.16575731  0.41915503     1.90100
O362        O  0.85590837  0.22719224  0.47596859    -0.72500
O363        O  0.89750612  0.23236929  0.37170649    -0.72400
O364        O  0.92667768  0.21170887  0.44727593    -0.78000
O365        O  0.92782451  0.17517306  0.36794985    -0.76200
O366        O  0.86026830  0.17760926  0.41450149    -1.12400
O367        O  0.86804685  0.13045924  0.35155720    -0.71600
C368        C  0.83188358  0.12315371  0.34766121     0.99200
C369        C  0.81922275  0.22596697  0.48255031     0.95600
Al370      Al  0.87624838  0.22687530  0.42353176     1.55600
O371        O  0.81853771  0.12665856  0.45869749    -0.76200
C372        C  0.92152835  0.20967726  0.35424272     0.99700
C373        C  0.80013644  0.23901280  0.38306110     0.94600
O374        O  0.79540875  0.20239886  0.37984997    -0.81500
O375        O  0.62306732  0.27515955  0.33787947    -0.81000
C376        C  0.53063670  0.39887174  0.28368724     0.98400
O377        O  0.54642283  0.38579613  0.31498304    -0.70100
O378        O  0.56763728  0.33085878  0.36563504    -0.73700
Al379      Al  0.59400439  0.35877329  0.32121705     1.49000
C380        C  0.54364879  0.30180847  0.36646165     0.93600
O381        O  0.54044611  0.25602552  0.26074331    -0.79900
O382        O  0.59367994  0.28834927  0.21017978    -0.73500
Al383      Al  0.58141580  0.27245071  0.29865680     1.90100
O384        O  0.51971610  0.31256963  0.23653473    -0.72500
O385        O  0.62011197  0.36168773  0.22782422    -0.72400
O386        O  0.54245500  0.38643141  0.24978604    -0.78000
O387        O  0.62311956  0.39335944  0.28442043    -0.76200
O388        O  0.58118177  0.32297680  0.28512285    -1.12400
O389        O  0.64361882  0.33585425  0.33089313    -0.71600
C390        C  0.65026816  0.30049879  0.33984034     0.99200
C391        C  0.51655387  0.27542950  0.23879784     0.95600
Al392      Al  0.57015255  0.33679639  0.23503193     1.55600
O393        O  0.54131459  0.27897635  0.33692511    -0.76200
C394        C  0.63677777  0.38693197  0.24964012     0.99700
C395        C  0.61453694  0.26116948  0.22653353     0.94600
O396        O  0.62199733  0.26352494  0.26283768    -0.81500
O397        O  0.21375313  0.62107531  0.08146693    -0.81000
C398        C  0.08924518  0.67880410  0.99675957     0.98400
O399        O  0.10127508  0.64738322  0.01295152    -0.70100
O400        O  0.15729735  0.59686024  0.03154500    -0.73700
Al401      Al  0.13032089  0.64080826  0.05939807     1.49000
C402        C  0.18440462  0.59669738  0.00486276     0.93600
O403        O  0.23254213  0.70175190  0.00155862    -0.79900
O404        O  0.20006398  0.74895921  0.05974952    -0.73500
Al405      Al  0.21629194  0.66220023  0.04137835     1.90100
O406        O  0.17552148  0.72586166  0.98365182    -0.72500
O407        O  0.12759030  0.73289741  0.08447121    -0.72400
O408        O  0.10299797  0.71217844  0.00722963    -0.78000
O409        O  0.09639931  0.67683975  0.08979925    -0.76200
O410        O  0.16590289  0.67656079  0.04485227    -1.12400
O411        O  0.15579720  0.63124371  0.10824412    -0.71600
C412        C  0.19114946  0.62028433  0.11162499     0.99200
C413        C  0.21243174  0.72463400  0.97924578     0.95600
Al414      Al  0.15221171  0.72612664  0.03471406     1.55600
O415        O  0.20584585  0.62674763  0.99995625    -0.76200
C416        C  0.10222605  0.71186066  0.10171950     0.99700
C417        C  0.22712538  0.73233933  0.08066769     0.94600
O418        O  0.22954750  0.69535470  0.08261418    -0.81500
O419        O  0.40617798  0.76736153  0.13125248    -0.81000
C420        C  0.49256491  0.89694154  0.17796577     0.98400
O421        O  0.47750216  0.88276814  0.14698471    -0.70100
O422        O  0.45769861  0.82504979  0.09939728    -0.73700
Al423      Al  0.43118213  0.85305797  0.14275688     1.49000
C424        C  0.48321172  0.79714387  0.09906415     0.93600
O425        O  0.49196558  0.75472081  0.20640153    -0.79900
O426        O  0.43604657  0.78807266  0.25705155    -0.73500
Al427      Al  0.44921336  0.76745912  0.16924985     1.90100
O428        O  0.50897115  0.81252510  0.22905704    -0.72500
O429        O  0.40641510  0.85837850  0.23594023    -0.72400
O430        O  0.48191952  0.88444201  0.21217697    -0.78000
O431        O  0.40104394  0.88772459  0.17797417    -0.76200
O432        O  0.44618624  0.81864980  0.18050564    -1.12400
O433        O  0.38293239  0.82781658  0.13445132    -0.71600
C434        C  0.37799275  0.79194681  0.12704498     0.99200
C435        C  0.51468238  0.77561946  0.22756899     0.95600
Al436      Al  0.45725135  0.83497883  0.22949854     1.55600
O437        O  0.48773283  0.77546017  0.12945887    -0.76200
C438        C  0.38826465  0.88209849  0.21313937     0.99700
C439        C  0.41553189  0.75952983  0.24407778     0.94600
O440        O  0.41089109  0.75483662  0.20726752    -0.81500
O441        O  0.36811822  0.58276494  0.28235942    -0.81000
C442        C  0.30660837  0.49302298  0.40515035     0.98400
O443        O  0.33931975  0.50665757  0.39377547    -0.70100
O444        O  0.39260651  0.52669211  0.33984296    -0.73700
Al445      Al  0.34819215  0.55409542  0.36628523     1.49000
C446        C  0.39438961  0.50307985  0.31029270     0.93600
O447        O  0.29036546  0.50170778  0.26059592    -0.79900
O448        O  0.24045103  0.55809869  0.29141985    -0.73500
Al449      Al  0.32845960  0.54180578  0.27826252     1.90100
O450        O  0.26250346  0.48305492  0.31641205    -0.72500
O451        O  0.25663524  0.58437866  0.36533072    -0.72400
O452        O  0.27422313  0.50626576  0.39074460    -0.78000
O453        O  0.31154561  0.58390107  0.39988314    -0.76200
O454        O  0.31319696  0.54248024  0.32866665    -1.12400
O455        O  0.35996975  0.60371367  0.34332101    -0.71600
C456        C  0.36994978  0.61013380  0.30787953     0.99200
C457        C  0.26693642  0.47892543  0.27926001     0.95600
Al458      Al  0.26254345  0.53389017  0.34060026     1.55600
O459        O  0.36557685  0.50075989  0.28650603    -0.76200
C460        C  0.27804215  0.59940684  0.39205181     0.99700
C461        C  0.25793775  0.57834939  0.26474218     0.94600
O462        O  0.29440300  0.58312044  0.26705722    -0.81500
O463        O  0.71214848  0.83015764  0.87260584    -0.81000
C464        C  0.58848066  0.77517182  0.96406317     0.98400
O465        O  0.60109510  0.80724270  0.94990114    -0.70100
O466        O  0.65556882  0.85857004  0.92791583    -0.73700
Al467      Al  0.62836692  0.81419715  0.90177203     1.49000
C468        C  0.68453535  0.85962866  0.95235772     0.93600
O469        O  0.73123409  0.75413192  0.95840876    -0.79900
O470        O  0.70065927  0.70398598  0.90341149    -0.73500
Al471      Al  0.71512841  0.79182653  0.91591048     1.90100
O472        O  0.67457238  0.72961495  0.97694754    -0.72500
O473        O  0.62814168  0.72211135  0.87502935    -0.72400
O474        O  0.60179166  0.74220716  0.95149127    -0.78000
O475        O  0.59424784  0.77760664  0.87292561    -0.76200
O476        O  0.66485345  0.77830944  0.91497386    -1.12400
O477        O  0.65137875  0.82405830  0.85142568    -0.71600
C478        C  0.68694885  0.83203653  0.84462127     0.99200
C479        C  0.71156843  0.73149456  0.98134040     0.95600
Al480      Al  0.65179073  0.72847918  0.92554098     1.55600
O481        O  0.70726418  0.83005630  0.95571680    -0.76200
C482        C  0.60128825  0.74317886  0.85941410     0.99700
C483        C  0.72826062  0.72002564  0.88340548     0.94600
O484        O  0.72639361  0.75613123  0.87580220    -0.81500
O485        O  0.86463896  0.87077431  0.68593110    -0.81000
C486        C  0.81583004  0.96202835  0.55944220     0.98400
O487        O  0.84629523  0.94490826  0.57256750    -0.70100
O488        O  0.89385523  0.92381895  0.63010104    -0.73700
Al489      Al  0.85127793  0.89747927  0.60076749     1.49000
C490        C  0.89311814  0.94937763  0.65796900     0.93600
O491        O  0.78607700  0.95275355  0.70169246    -0.79900
O492        O  0.73817255  0.89722772  0.66539979    -0.73500
Al493      Al  0.82484993  0.91217947  0.68707328     1.90100
O494        O  0.76433349  0.97231540  0.64375244    -0.72500
O495        O  0.75898566  0.87348604  0.59301371    -0.72400
O496        O  0.78166343  0.95059979  0.57052292    -0.78000
O497        O  0.81689541  0.86853692  0.56445012    -0.76200
O498        O  0.81352180  0.91082672  0.63540977    -1.12400
O499        O  0.86006641  0.84801198  0.62530676    -0.71600
C500        C  0.86777638  0.84248778  0.66149396     0.99200
C501        C  0.76473523  0.97602063  0.68106075     0.95600
Al502      Al  0.76476791  0.92230279  0.61908466     1.55600
O503        O  0.86275322  0.95254752  0.67979623    -0.76200
C504        C  0.78168345  0.85636525  0.56875597     0.99700
C505        C  0.75185951  0.87547283  0.69344636     0.94600
O506        O  0.78866626  0.87208059  0.69832646    -0.81500
O507        O  0.90917990  0.67652952  0.83795780    -0.81000
C508        C  0.99152755  0.55094575  0.77812928     0.98400
O509        O  0.97895312  0.56368875  0.81099935    -0.70100
O510        O  0.96165703  0.61988744  0.86253194    -0.73700
Al511      Al  0.93267634  0.59256820  0.82008027     1.49000
C512        C  0.98687324  0.64775931  0.86165523     0.93600
O513        O  0.98616665  0.69311735  0.75478467    -0.79900
O514        O  0.92576810  0.66170685  0.70886880    -0.73500
Al515      Al  0.94782790  0.67839702  0.79561829     1.90100
O516        O  0.00190179  0.63659130  0.72752956    -0.72500
O517        O  0.89999638  0.59048037  0.72993128    -0.72400
O518        O  0.97792102  0.56430238  0.74526014    -0.78000
O519        O  0.90114453  0.55826355  0.78651395    -0.76200
O520        O  0.94433839  0.62803337  0.78244410    -1.12400
O521        O  0.88434278  0.61758159  0.83199913    -0.71600
C522        C  0.88035039  0.65307265  0.84185053     0.99200
C523        C  0.00722814  0.67333457  0.73065629     0.95600
Al524      Al  0.95067983  0.61385510  0.73196697     1.55600
O525        O  0.99024707  0.66882237  0.83069781    -0.76200
C526        C  0.88494428  0.56531666  0.75313661     0.99700
C527        C  0.90660295  0.68959530  0.72563664     0.94600
O528        O  0.90568385  0.69172608  0.76293127    -0.81500
C529        C  0.86174803  0.78981016  0.71256087     0.24400
C530        C  0.87727960  0.80215907  0.67588761    -0.23700
C531        C  0.89809386  0.77458331  0.65222698     0.19300
C532        C  0.90519642  0.73596145  0.66646064     0.24400
C533        C  0.88984002  0.72396992  0.70363384    -0.23600
C534        C  0.86579368  0.75076972  0.72504853     0.19300
F535        F  0.84810750  0.73992535  0.75980650    -0.13600
F536        F  0.84300315  0.81578245  0.73695160    -0.15900
F537        F  0.92904992  0.71139225  0.64517894    -0.15900
F538        F  0.91365793  0.78573119  0.61660212    -0.13600
C539        C  0.67975099  0.86925564  0.77936760     0.24400
C540        C  0.69950326  0.84084928  0.80316544    -0.23700
C541        C  0.72964216  0.81792309  0.78575882     0.19300
C542        C  0.74174375  0.82517518  0.74663761     0.24400
C543        C  0.72655568  0.85764970  0.72498929    -0.23600
C544        C  0.69379721  0.87830545  0.74080222     0.19300
F545        F  0.67706878  0.90873270  0.72015174    -0.13600
F546        F  0.64832981  0.88965347  0.79422691    -0.15900
F547        F  0.76955366  0.80115799  0.73022856    -0.15900
F548        F  0.74743302  0.78817776  0.80645914    -0.13600
C549        C  0.76981247  0.66032373  0.86447926     0.24400
C550        C  0.76649120  0.70028470  0.87481264    -0.23700
C551        C  0.80125325  0.72311206  0.87760940     0.19300
C552        C  0.83800506  0.70712663  0.86869833     0.24400
C553        C  0.84156225  0.66776346  0.85639506    -0.23600
C554        C  0.80709091  0.64414426  0.85494555     0.19300
F555        F  0.80911393  0.60587076  0.84304774    -0.13600
F556        F  0.73703306  0.63752175  0.86197401    -0.15900
F557        F  0.87007054  0.73095345  0.87148029    -0.15900
F558        F  0.80017934  0.76147445  0.88928301    -0.13600
C559        C  0.50503486  0.81398854  0.02893550     0.24400
C560        C  0.50786369  0.78935093  0.06285906    -0.23700
C561        C  0.53499267  0.75721542  0.06190298     0.19300
C562        C  0.55979473  0.75123599  0.02888176     0.24400
C563        C  0.55826855  0.77719496  0.99612137    -0.23600
C564        C  0.53005771  0.80808714  0.99615624     0.19300
F565        F  0.52690419  0.83297598  0.96437647    -0.13600
F566        F  0.47856323  0.84438619  0.02751790    -0.15900
F567        F  0.58683509  0.72132191  0.02998780    -0.15900
F568        F  0.53831541  0.73180849  0.09323688    -0.13600
C569        C  0.35340798  0.67375732  0.27420553     0.24400
C570        C  0.38079460  0.65063650  0.29574970    -0.23700
C571        C  0.41688186  0.66748275  0.30724390     0.19300
C572        C  0.42666965  0.70587905  0.29449031     0.24400
C573        C  0.40040376  0.72773849  0.27015573    -0.23600
C574        C  0.36305769  0.71193304  0.26171216     0.19300
F575        F  0.33654100  0.73298552  0.23962865    -0.13600
F576        F  0.31733908  0.65926643  0.26473592    -0.15900
F577        F  0.46287541  0.72043762  0.30334881    -0.15900
F578        F  0.44335069  0.64604950  0.32901579    -0.13600
C579        C  0.06056916  0.69900097  0.93046888     0.24400
C580        C  0.05946162  0.67479302  0.96452763    -0.23700
C581        C  0.03305861  0.64266933  0.96527208     0.19300
C582        C  0.00939133  0.63404367  0.93225019     0.24400
C583        C  0.01153279  0.65723586  0.89733352    -0.23600
C584        C  0.03690905  0.69041877  0.89728468     0.19300
F585        F  0.03950178  0.71451552  0.86488845    -0.13600
F586        F  0.08617004  0.72968630  0.92835229    -0.15900
F587        F  0.98486176  0.60250368  0.93448178    -0.15900
F588        F  0.03054665  0.61896522  0.99800465    -0.13600
C589        C  0.31390243  0.80107423  0.09007814     0.24400
C590        C  0.33819113  0.77858837  0.11590455    -0.23700
C591        C  0.32270775  0.74502078  0.13459027     0.19300
C592        C  0.28388538  0.73373684  0.12741906     0.24400
C593        C  0.26047809  0.75388857  0.09879889    -0.23600
C594        C  0.27548393  0.78840481  0.08097213     0.19300
F595        F  0.25422319  0.80826107  0.05285347    -0.13600
F596        F  0.32818800  0.83401387  0.07196972    -0.15900
F597        F  0.26992391  0.70141414  0.14693718    -0.15900
F598        F  0.34522468  0.72293044  0.15989852    -0.13600
C599        C  0.24778714  0.60882847  0.15706772     0.24400
C600        C  0.20681017  0.60858858  0.15110146    -0.23700
C601        C  0.18168694  0.60040477  0.18385690     0.19300
C602        C  0.19770826  0.59140054  0.22152263     0.24400
C603        C  0.23888434  0.59174448  0.22719646    -0.23600
C604        C  0.26354411  0.60113208  0.19434262     0.19300
F605        F  0.30364501  0.60177015  0.19733462    -0.13600
F606        F  0.27324410  0.61735317  0.12689309    -0.15900
F607        F  0.17306498  0.58242044  0.25219822    -0.15900
F608        F  0.14173395  0.60080235  0.17947976    -0.13600
C609        C  0.49097854  0.44615874  0.32629197     0.24400
C610        C  0.49772767  0.42850084  0.28859679    -0.23700
C611        C  0.47105002  0.43742933  0.25759405     0.19300
C612        C  0.43792261  0.46198850  0.26448819     0.24400
C613        C  0.43057275  0.47840155  0.30257795    -0.23600
C614        C  0.45807373  0.47068885  0.33307620     0.19300
F615        F  0.45264801  0.48590708  0.37008570    -0.13600
F616        F  0.51599329  0.43938655  0.35733323    -0.15900
F617        F  0.41306094  0.46972410  0.23357142    -0.15900
F618        F  0.47625209  0.42154803  0.22085914    -0.13600
C619        C  0.79203691  0.00891650  0.50470543     0.24400
C620        C  0.82165011  0.99618812  0.53150731    -0.23700
C621        C  0.85815719  0.01656775  0.53152333     0.19300
C622        C  0.86469925  0.04859507  0.50575186     0.24400
C623        C  0.83492402  0.06161364  0.47969459    -0.23600
C624        C  0.79858058  0.04147454  0.47921850     0.19300
F625        F  0.76969749  0.05290280  0.45339416    -0.13600
F626        F  0.75713394  0.98944625  0.50252606    -0.15900
F627        F  0.89976649  0.06789598  0.50733389    -0.15900
F628        F  0.88747535  0.00630175  0.55737474    -0.13600
C629        C  0.74773783  0.28960160  0.39369896     0.24400
C630        C  0.76829566  0.26431558  0.36757983    -0.23700
C631        C  0.75117453  0.25437914  0.33095288     0.19300
C632        C  0.71267544  0.26635099  0.32212134     0.24400
C633        C  0.69076504  0.28855270  0.34975513    -0.23600
C634        C  0.70897152  0.30164836  0.38480166     0.19300
F635        F  0.68851441  0.32424735  0.41121237    -0.13600
F636        F  0.76385730  0.29985224  0.42916212    -0.15900
F637        F  0.69678088  0.25588359  0.28666065    -0.15900
F638        F  0.77111881  0.23114800  0.30469599    -0.13600
C639        C  0.55855492  0.97570588  0.13114226     0.24400
C640        C  0.59000187  0.97734001  0.15861680    -0.23700
C641        C  0.58667419  0.95534117  0.19448546     0.19300
C642        C  0.55412418  0.93089971  0.20165055     0.24400
C643        C  0.52390795  0.92746670  0.17322823    -0.23600
C644        C  0.52603451  0.95095079  0.13827031     0.19300
F645        F  0.49663923  0.94985300  0.11069170    -0.13600
F646        F  0.55951532  0.99732823  0.09692077    -0.15900
F647        F  0.55321235  0.90918560  0.23579418    -0.15900
F648        F  0.61512439  0.95711022  0.22298171    -0.13600
C649        C  0.67492304  0.96189862  0.99993752     0.24400
C650        C  0.70766249  0.96261182  0.02616071    -0.23700
C651        C  0.73392399  0.93022380  0.02610333     0.19300
C652        C  0.72670494  0.89722887  0.00191136     0.24400
C653        C  0.69290388  0.89568612  0.97688232    -0.23600
C654        C  0.66765089  0.92899778  0.97573326     0.19300
F655        F  0.63528517  0.92966338  0.95176114    -0.13600
F656        F  0.64935684  0.99305784  0.99801097    -0.15900
F657        F  0.75270750  0.86645340  0.00380557    -0.15900
F658        F  0.76558467  0.92946810  0.05102585    -0.13600
C659        C  0.77941675  0.12735349  0.29601070     0.24400
C660        C  0.81622417  0.11211239  0.30808525    -0.23700
C661        C  0.83837665  0.08903633  0.28104322     0.19300
C662        C  0.82247501  0.07902520  0.24367379     0.24400
C663        C  0.78461000  0.09289023  0.23243544    -0.23600
C664        C  0.76434299  0.11879942  0.25845664     0.19300
F665        F  0.72889426  0.13507316  0.24821397    -0.13600
F666        F  0.75781189  0.15093033  0.32056996    -0.15900
F667        F  0.84311229  0.05406643  0.21968427    -0.15900
F668        F  0.87453529  0.07459826  0.29153455    -0.13600
C669        C  0.63894139  0.15244116  0.21668298     0.24400
C670        C  0.63701216  0.14618161  0.17554122    -0.23700
C671        C  0.62770677  0.17852038  0.15020376     0.19300
C672        C  0.62077440  0.21642050  0.16607509     0.24400
C673        C  0.62451582  0.22280016  0.20727099    -0.23600
C674        C  0.63383411  0.18998159  0.23218986     0.19300
F675        F  0.63726769  0.19336003  0.27238759    -0.13600
F676        F  0.64698245  0.12231253  0.24247649    -0.15900
F677        F  0.61074554  0.24667767  0.14122905    -0.15900
F678        F  0.62504073  0.17346060  0.11016683    -0.13600
C679        C  0.29330216  0.39197287  0.45225196     0.24400
C680        C  0.32175676  0.39248511  0.48324992    -0.23700
C681        C  0.34109077  0.42840364  0.49113646     0.19300
C682        C  0.33429930  0.46178722  0.46703599     0.24400
C683        C  0.30745474  0.46049544  0.43500193    -0.23600
C684        C  0.28607749  0.42569797  0.42867188     0.19300
F685        F  0.25997806  0.42351065  0.39801769    -0.13600
F686        F  0.27321761  0.35846148  0.44363239    -0.15900
F687        F  0.35442328  0.49550010  0.47475213    -0.15900
F688        F  0.36690413  0.43133213  0.52196183    -0.13600
C689        C  0.47217370  0.25044042  0.43832344     0.24400
C690        C  0.46445604  0.28023406  0.46641688    -0.23700
C691        C  0.48546457  0.31610012  0.46304706     0.19300
C692        C  0.51190115  0.32271638  0.43145941     0.24400
C693        C  0.51805536  0.29378005  0.40207637    -0.23600
C694        C  0.49846105  0.25712376  0.40652824     0.19300
F695        F  0.50431070  0.22755594  0.37986152    -0.13600
F696        F  0.45305318  0.21533074  0.44054045    -0.15900
F697        F  0.53048665  0.35809808  0.42910790    -0.15900
F698        F  0.48021222  0.34526989  0.49026688    -0.13600
C699        C  0.23332328  0.52610493  0.93062327     0.24400
C700        C  0.20672096  0.49442900  0.93017127    -0.23700
C701        C  0.17368638  0.49574394  0.95600448     0.19300
C702        C  0.16671749  0.52844197  0.98061181     0.24400
C703        C  0.19241083  0.56096518  0.97994675    -0.23600
C704        C  0.22634429  0.55892494  0.95514221     0.19300
F705        F  0.25291472  0.58883835  0.95415988    -0.13600
F706        F  0.26523439  0.52626519  0.90597844    -0.15900
F707        F  0.13427421  0.52837232  0.00453509    -0.15900
F708        F  0.14771715  0.46531951  0.95734503    -0.13600
C709        C  0.09195741  0.50355125  0.76429645     0.24400
C710        C  0.09208825  0.47431328  0.79473105    -0.23700
C711        C  0.05647538  0.46721662  0.81542139     0.19300
C712        C  0.02280701  0.49057112  0.80800077     0.24400
C713        C  0.02365120  0.52106585  0.77931075    -0.23600
C714        C  0.05803400  0.52647150  0.75664611     0.19300
F715        F  0.05967174  0.55577669  0.72887050    -0.13600
F716        F  0.12495706  0.51101223  0.74247940    -0.15900
F717        F  0.98935709  0.48381945  0.82940309    -0.15900
F718        F  0.05413340  0.43799989  0.84322330    -0.13600
C719        C  0.27268225  0.32597203  0.71082634     0.24400
C720        C  0.29066598  0.35702826  0.73181562    -0.23700
C721        C  0.32368152  0.37577865  0.71481159     0.19300
C722        C  0.33615906  0.36570535  0.67617705     0.24400
C723        C  0.31469433  0.33811154  0.65361400    -0.23600
C724        C  0.28345158  0.31779088  0.67164091     0.19300
F725        F  0.26322512  0.28990198  0.65128933    -0.13600
F726        F  0.24287254  0.30497039  0.72762150    -0.15900
F727        F  0.36776858  0.38445512  0.65998881    -0.15900
F728        F  0.34198577  0.40564126  0.73421741    -0.13600
C729        C  0.01462231  0.13251343  0.52955505     0.24400
C730        C  0.01593021  0.16024240  0.56062335    -0.23700
C731        C  0.99570190  0.19674389  0.55543113     0.19300
C732        C  0.97284693  0.20406157  0.52120404     0.24400
C733        C  0.96940263  0.17497389  0.49162698    -0.23600
C734        C  0.99176262  0.13981343  0.49557052     0.19300
F735        F  0.99099081  0.11187326  0.46665289    -0.13600
F736        F  0.03451089  0.09757509  0.53236056    -0.15900
F737        F  0.95268624  0.23885344  0.51801729    -0.15900
F738        F  0.99753477  0.22537906  0.58361041    -0.13600
C739        C  0.92772298  0.00332413  0.69711867     0.24400
C740        C  0.92819260  0.97530962  0.66580812    -0.23700
C741        C  0.96262354  0.97257808  0.64216205     0.19300
C742        C  0.99502113  0.99734706  0.64907611     0.24400
C743        C  0.99435459  0.02541905  0.68005962    -0.23600
C744        C  0.96046986  0.02779170  0.70425683     0.19300
F745        F  0.95808676  0.05534826  0.73346992    -0.13600
F746        F  0.89517405  0.00795662  0.72045664    -0.15900
F747        F  0.02720687  0.99402923  0.62499272    -0.15900
F748        F  0.96495852  0.94637445  0.61169883    -0.13600
C749        C  0.14265058  0.25926397  0.73153762     0.24400
C750        C  0.12484965  0.22994963  0.75599772    -0.23700
C751        C  0.11624619  0.23957463  0.79588674     0.19300
C752        C  0.12531216  0.27738987  0.81067002     0.24400
C753        C  0.14171202  0.30650222  0.78536014    -0.23600
C754        C  0.14980695  0.29690171  0.74569544     0.19300
F755        F  0.16536428  0.32393798  0.72012212    -0.13600
F756        F  0.15209339  0.25259629  0.69274977    -0.15900
F757        F  0.11684426  0.28595057  0.84926109    -0.15900
F758        F  0.09815212  0.21304411  0.82016043    -0.13600
C759        C  0.20977323  0.18055655  0.63873438     0.24400
C760        C  0.18420947  0.16421230  0.61041167    -0.23700
C761        C  0.19857372  0.15609609  0.57198939     0.19300
C762        C  0.23722046  0.16700675  0.56125289     0.24400
C763        C  0.26179810  0.18623560  0.58881300    -0.23600
C764        C  0.24808743  0.19170948  0.62798052     0.19300
F765        F  0.27134938  0.20960670  0.65537022    -0.13600
F766        F  0.19744890  0.18613004  0.67681839    -0.15900
F767        F  0.24948223  0.16162859  0.52314997    -0.15900
F768        F  0.17470845  0.13906718  0.54453693    -0.13600
C769        C  0.30415297  0.91614429  0.28194517     0.24400
C770        C  0.28385275  0.94450824  0.25854633    -0.23700
C771        C  0.29642273  0.94978354  0.21870052     0.19300
C772        C  0.32999997  0.92969705  0.20382430     0.24400
C773        C  0.35169481  0.90306115  0.22811406    -0.23600
C774        C  0.33735754  0.89580814  0.26706785     0.19300
F775        F  0.35591405  0.86951174  0.29157865    -0.13600
F776        F  0.29260130  0.90872422  0.32003342    -0.15900
F777        F  0.34168467  0.93722894  0.16580980    -0.15900
F778        F  0.27737401  0.97570304  0.19433075    -0.13600
C779        C  0.23954919  0.16233253  0.42122353     0.24400
C780        C  0.26495313  0.13367013  0.40431946    -0.23700
C781        C  0.30599543  0.14107876  0.40447539     0.19300
C782        C  0.32130409  0.17413655  0.42399985     0.24400
C783        C  0.29613110  0.20085975  0.44434024    -0.23600
C784        C  0.25490387  0.19553387  0.44088260     0.19300
F785        F  0.22927833  0.22145755  0.45805737    -0.13600
F786        F  0.19968741  0.15829624  0.41882330    -0.15900
F787        F  0.36122224  0.17874271  0.42437624    -0.15900
F788        F  0.33185540  0.11553813  0.38699102    -0.13600
C789        C  0.95553725  0.27703905  0.26940327     0.24400
C790        C  0.98891055  0.25658515  0.25485660    -0.23700
C791        C  0.99711429  0.21842286  0.27005733     0.19300
C792        C  0.97460267  0.20260384  0.30138512     0.24400
C793        C  0.94297253  0.22434805  0.31808633    -0.23600
C794        C  0.93260319  0.26099054  0.30027695     0.19300
F795        F  0.90053746  0.28186400  0.31303485    -0.13600
F796        F  0.94547470  0.31306294  0.25424868    -0.15900
F797        F  0.98492699  0.16657220  0.31627984    -0.15900
F798        F  0.02859410  0.19722088  0.25644953    -0.13600
C799        C  0.17706966  0.17466438  0.26205167     0.24400
C800        C  0.15207802  0.15520946  0.28897994    -0.23700
C801        C  0.12205268  0.17692617  0.30838744     0.19300
C802        C  0.11423339  0.21632879  0.29729197     0.24400
C803        C  0.13699240  0.23446314  0.26731519    -0.23600
C804        C  0.17033483  0.21425032  0.25231416     0.19300
F805        F  0.19487812  0.23224746  0.22592527    -0.13600
F806        F  0.20806742  0.15532973  0.24504366    -0.15900
F807        F  0.08258719  0.23547101  0.31334793    -0.15900
F808        F  0.09894383  0.15931541  0.33633717    -0.13600
C809        C  0.22521805  0.46048168  0.21934498     0.24400
C810        C  0.24042635  0.45094656  0.25748665    -0.23700
C811        C  0.22487273  0.41779049  0.27732247     0.19300
C812        C  0.19321979  0.39659258  0.26113141     0.24400
C813        C  0.17524515  0.40831057  0.22477792    -0.23600
C814        C  0.19296795  0.43953214  0.20323850     0.19300
F815        F  0.17842614  0.45075047  0.16715719    -0.13600
F816        F  0.23991726  0.49165889  0.19856622    -0.15900
F817        F  0.18002131  0.36455837  0.28163248    -0.15900
F818        F  0.23988196  0.40617655  0.31309225    -0.13600
C819        C  0.31975444  0.27976844  0.92819944     0.24400
C820        C  0.29792398  0.25806860  0.95653077    -0.23700
C821        C  0.25793422  0.26916690  0.96272225     0.19300
C822        C  0.24054553  0.30100264  0.94132761     0.24400
C823        C  0.26269450  0.32292577  0.91323182    -0.23600
C824        C  0.30258034  0.31140898  0.90699999     0.19300
F825        F  0.32579001  0.33115497  0.88061764    -0.13600
F826        F  0.35839727  0.27089563  0.92127552    -0.15900
F827        F  0.20217816  0.31067810  0.94874540    -0.15900
F828        F  0.23600097  0.25051113  0.99095361    -0.13600
C829        C  0.24116745  0.23077664  0.12452575     0.24400
C830        C  0.26850232  0.25288389  0.10185200    -0.23700
C831        C  0.25773177  0.29130114  0.08933439     0.19300
C832        C  0.21959440  0.30613712  0.09739549     0.24400
C833        C  0.19139630  0.28213151  0.11665247    -0.23600
C834        C  0.20282374  0.24451386  0.13029554     0.19300
F835        F  0.17673141  0.22049552  0.14919163    -0.13600
F836        F  0.25068576  0.19444649  0.13937110    -0.15900
F837        F  0.20963020  0.34302720  0.08452613    -0.15900
F838        F  0.28310013  0.31358920  0.06747626    -0.13600
C839        C  0.29429891  0.07731909  0.15084382     0.24400
C840        C  0.32846424  0.10038745  0.14967526    -0.23700
C841        C  0.34748964  0.11011075  0.18591387     0.19300
C842        C  0.33122194  0.09843834  0.22267043     0.24400
C843        C  0.29562666  0.07755341  0.22343880    -0.23600
C844        C  0.27777667  0.06667224  0.18716207     0.19300
F845        F  0.24319442  0.04655005  0.18660258    -0.13600
F846        F  0.27613787  0.06579525  0.11675858    -0.15900
F847        F  0.34852451  0.10987340  0.25720580    -0.15900
F848        F  0.38045518  0.13285127  0.18597299    -0.13600
C849        C  0.47494491  0.19968271  0.16591794     0.24400
C850        C  0.44746584  0.22304181  0.14426732    -0.23700
C851        C  0.43895772  0.26144708  0.15861679     0.19300
C852        C  0.45912171  0.27695451  0.19134371     0.24400
C853        C  0.48870669  0.25492128  0.21110091    -0.23600
C854        C  0.49535520  0.21543095  0.19889310     0.19300
F855        F  0.52300593  0.19255453  0.21749886    -0.13600
F856        F  0.48276135  0.16184623  0.15485417    -0.15900
F857        F  0.45039328  0.31447697  0.20283623    -0.15900
F858        F  0.41164370  0.28500556  0.14040197    -0.13600
C859        C  0.79464510  0.53647336  0.69196922     0.24400
C860        C  0.78268879  0.50107859  0.71022594    -0.23700
C861        C  0.80219872  0.48871842  0.74541096     0.19300
C862        C  0.83474982  0.50988146  0.76022193     0.24400
C863        C  0.84829136  0.54412117  0.74033060    -0.23600
C864        C  0.82657018  0.55791521  0.70698635     0.19300
F865        F  0.83660200  0.59198783  0.68806642    -0.13600
F866        F  0.77614165  0.54971420  0.65848489    -0.15900
F867        F  0.85404700  0.49568151  0.79286011    -0.15900
F868        F  0.79177071  0.45453105  0.76388059    -0.13600
C869        C  0.74409311  0.29594947  0.53031885     0.24400
C870        C  0.76869286  0.32160206  0.55192435    -0.23700
C871        C  0.80958409  0.31293853  0.55347696     0.19300
C872        C  0.82552278  0.28037566  0.53322340     0.24400
C873        C  0.80113011  0.25516368  0.51074945    -0.23600
C874        C  0.76000623  0.26300706  0.51034234     0.19300
F875        F  0.73516204  0.24008991  0.48881715    -0.13600
F876        F  0.70449897  0.30278573  0.52816032    -0.15900
F877        F  0.86532849  0.27454939  0.53461323    -0.15900
F878        F  0.83477060  0.33682507  0.57349876    -0.13600
C879        C  0.75362605  0.19292943  0.00946039     0.24400
C880        C  0.79387708  0.20234915  0.01505340    -0.23700
C881        C  0.81591044  0.17977965  0.04267224     0.19300
C882        C  0.79921219  0.14709515  0.06198938     0.24400
C883        C  0.75963490  0.13588338  0.05451282    -0.23600
C884        C  0.73671744  0.16020171  0.02900318     0.19300
F885        F  0.69805844  0.15198020  0.02218158    -0.13600
F886        F  0.73103977  0.21395572  0.98329627    -0.15900
F887        F  0.82257682  0.12589431  0.08732560    -0.15900
F888        F  0.85434663  0.18856040  0.05020516    -0.13600
C889        C  0.96813439  0.24784869  0.03298294     0.24400
C890        C  0.97003855  0.27129805  0.99839292    -0.23700
C891        C  0.99863203  0.30143048  0.99642740     0.19300
C892        C  0.02326903  0.30937881  0.02889667     0.24400
C893        C  0.01998982  0.28755140  0.06456039    -0.23600
C894        C  0.99274667  0.25583906  0.06574197     0.19300
F895        F  0.98889491  0.23308186  0.09898395    -0.13600
F896        F  0.94074484  0.21883244  0.03613735    -0.15900
F897        F  0.04977442  0.33917188  0.02544918    -0.15900
F898        F  0.00210138  0.32413127  0.96309523    -0.13600
C899        C  0.77998059  0.35225827  0.81213717     0.24400
C900        C  0.82105477  0.35013008  0.81760737    -0.23700
C901        C  0.84604685  0.35701355  0.78445612     0.19300
C902        C  0.82998090  0.36511035  0.74655585     0.24400
C903        C  0.78877201  0.36522339  0.74095106    -0.23600
C904        C  0.76412027  0.35900344  0.77455611     0.19300
F905        F  0.72402435  0.36052220  0.77183147    -0.13600
F906        F  0.75456576  0.34694373  0.84308325    -0.15900
F907        F  0.85464321  0.37243570  0.71547327    -0.15900
F908        F  0.88601582  0.35599943  0.78862950    -0.13600
C909        C  0.99566465  0.23356400  0.77470546     0.24400
C910        C  0.98417674  0.19803844  0.75635450    -0.23700
C911        C  0.95108344  0.17808388  0.77188613     0.19300
C912        C  0.93051129  0.19270761  0.80518849     0.24400
C913        C  0.94283598  0.22755252  0.82457545    -0.23600
C914        C  0.97547928  0.24796674  0.80842618     0.19300
F915        F  0.98909171  0.28122078  0.82611096    -0.13600
F916        F  0.02822708  0.25307008  0.76176356    -0.15900
F917        F  0.89881824  0.17214149  0.81871903    -0.15900
F918        F  0.93906414  0.14361967  0.75535893    -0.13600
C919        C  0.48825176  0.23387762  0.68988945     0.24400
C920        C  0.48111399  0.19538136  0.70450438    -0.23700
C921        C  0.45037276  0.17356313  0.68710636     0.19300
C922        C  0.42885767  0.18885178  0.65464926     0.24400
C923        C  0.43772110  0.22638886  0.63820522    -0.23600
C924        C  0.46699527  0.24909802  0.65715065     0.19300
F925        F  0.47616558  0.28569196  0.64331910    -0.13600
F926        F  0.51763460  0.25608079  0.70559386    -0.15900
F927        F  0.39976814  0.16623708  0.63895855    -0.15900
F928        F  0.44163473  0.13681180  0.70090648    -0.13600
C929        C  0.48610318  0.19234379  0.89727783     0.24400
C930        C  0.51759788  0.16451092  0.89881042    -0.23700
C931        C  0.52757015  0.14761572  0.93602899     0.19300
C932        C  0.50477918  0.15597269  0.96993457     0.24400
C933        C  0.47208612  0.18192352  0.96757950    -0.23600
C934        C  0.46374326  0.20093618  0.93133947     0.19300
F935        F  0.43199802  0.22560723  0.92813511    -0.13600
F936        F  0.47574858  0.21035395  0.86250246    -0.15900
F937        F  0.51408278  0.13800162  0.00505586    -0.15900
F938        F  0.55912181  0.12273274  0.93974078    -0.13600
C939        C  0.74916883  0.16606179  0.87944091     0.24400
C940        C  0.75942438  0.20516458  0.86932339    -0.23700
C941        C  0.73174195  0.22814860  0.84735930     0.19300
C942        C  0.69440531  0.21365548  0.83817992     0.24400
C943        C  0.68401556  0.17478810  0.84822180    -0.23600
C944        C  0.71209489  0.15076691  0.86827622     0.19300
F945        F  0.70304307  0.11303841  0.87859684    -0.13600
F946        F  0.77415063  0.14318022  0.90148945    -0.15900
F947        F  0.66842638  0.23801182  0.81902144    -0.15900
F948        F  0.74013390  0.26557704  0.83539426    -0.13600
C949        C  0.66166538  0.24155555  0.70945791     0.24400
C950        C  0.62904943  0.22158917  0.69335573    -0.23700
C951        C  0.60936554  0.23842288  0.66027260     0.19300
C952        C  0.61983931  0.27639213  0.64644801     0.24400
C953        C  0.64892689  0.29827380  0.66659548    -0.23600
C954        C  0.67073221  0.27973920  0.69705162     0.19300
F955        F  0.70078990  0.29871453  0.71536315    -0.13600
F956        F  0.68321866  0.22500478  0.73945869    -0.15900
F957        F  0.59999029  0.29267631  0.61516577    -0.15900
F958        F  0.57822853  0.21966936  0.64343607    -0.13600
C959        C  0.69416563  0.02249460  0.75701486     0.24400
C960        C  0.67004423  0.04651760  0.73231812    -0.23700
C961        C  0.68076490  0.05044010  0.69177215     0.19300
C962        C  0.71322556  0.02985629  0.67611081     0.24400
C963        C  0.73611198  0.00416189  0.70015551    -0.23600
C964        C  0.72672469  0.00153518  0.74114478     0.19300
F965        F  0.74801863  0.97750341  0.76575315    -0.13600
F966        F  0.68608528  0.01874669  0.79650946    -0.15900
F967        F  0.72128660  0.03429783  0.63665718    -0.15900
F968        F  0.65925759  0.07353675  0.66644379    -0.13600
C969        C  0.06084524  0.78778937  0.17481481     0.24400
C970        C  0.03902886  0.76452380  0.20192596    -0.23700
C971        C  0.03836354  0.72319080  0.19583716     0.19300
C972        C  0.05839895  0.70587147  0.16332581     0.24400
C973        C  0.07975196  0.72939131  0.13604874    -0.23600
C974        C  0.08070862  0.77059947  0.14257232     0.19300
F975        F  0.10011486  0.79500393  0.11701848    -0.13600
F976        F  0.06218677  0.82772751  0.17855029    -0.15900
F977        F  0.05680782  0.66607448  0.15864958    -0.15900
F978        F  0.01730040  0.69940863  0.22059308    -0.13600
C979        C  0.02624123  0.96462513  0.31326056     0.24400
C980        C  0.02511909  0.93825610  0.28071495    -0.23700
C981        C  0.05698651  0.93803815  0.25390366     0.19300
C982        C  0.09024895  0.96164912  0.26071707     0.24400
C983        C  0.09250199  0.98646372  0.29456525    -0.23600
C984        C  0.05938003  0.98848111  0.32003393     0.19300
F985        F  0.05922961  0.01278833  0.35214401    -0.13600
F986        F  0.99535368  0.96687165  0.33913230    -0.15900
F987        F  0.12071564  0.95920129  0.23440012    -0.15900
F988        F  0.05712937  0.91312840  0.22229919    -0.13600
C989        C  0.80090555  0.96287373  0.23943454     0.24400
C990        C  0.78291429  0.94963635  0.20401525    -0.23700
C991        C  0.79810575  0.91546903  0.18577965     0.19300
C992        C  0.83123229  0.89575044  0.20163831     0.24400
C993        C  0.85095889  0.91032734  0.23569947    -0.23600
C994        C  0.83475500  0.94375713  0.25484980     0.19300
F995        F  0.85252858  0.95912722  0.28752378    -0.13600
F996        F  0.78736219  0.99601103  0.25778131    -0.15900
F997        F  0.84418137  0.86247454  0.18307664    -0.15900
F998        F  0.78123426  0.90144133  0.15200066    -0.13600
C999        C  0.71429790  0.77242483  0.53552105     0.24400
C1000       C  0.73643608  0.75389222  0.50524001    -0.23700
C1001       C  0.77388213  0.76963025  0.49559310     0.19300
C1002       C  0.78863664  0.80290056  0.51574698     0.24400
C1003       C  0.76639121  0.82137048  0.54615313    -0.23600
C1004       C  0.72891490  0.80544293  0.55559626     0.19300
F1005       F  0.70564703  0.82203372  0.58410634    -0.13600
F1006       F  0.67763881  0.75922060  0.54521677    -0.15900
F1007       F  0.82414430  0.81775439  0.50441191    -0.15900
F1008       F  0.79535809  0.75435838  0.46501351    -0.13600
C1009       C  0.77519399  0.79530194  0.37007448     0.24400
C1010       C  0.77060534  0.75404030  0.37030355    -0.23700
C1011       C  0.80446386  0.72994429  0.36365347     0.19300
C1012       C  0.84125595  0.74624856  0.35662026     0.24400
C1013       C  0.84594518  0.78731779  0.35504637    -0.23600
C1014       C  0.81252065  0.81187778  0.36207779     0.19300
F1015       F  0.81583001  0.85186288  0.36118211    -0.13600
F1016       F  0.74370198  0.81947857  0.37702676    -0.15900
F1017       F  0.87222590  0.72114725  0.35040577    -0.15900
F1018       F  0.80286769  0.68983960  0.36487237    -0.13600
C1019       C  0.59120695  0.76468620  0.30994063     0.24400
C1020       C  0.58690898  0.72470463  0.32171323    -0.23700
C1021       C  0.56308160  0.70029652  0.29783469     0.19300
C1022       C  0.54235585  0.71596145  0.26479885     0.24400
C1023       C  0.54424769  0.75667863  0.25519556    -0.23600
C1024       C  0.57023777  0.78032062  0.27738835     0.19300
F1025       F  0.57462696  0.81927165  0.26847787    -0.13600
F1026       F  0.61492619  0.78949696  0.33060391    -0.15900
F1027       F  0.51875195  0.69149470  0.24360543    -0.15900
F1028       F  0.55928543  0.66127408  0.30662136    -0.13600
C1029       C  0.67700216  0.52665210  0.47923355     0.24400
C1030       C  0.70308768  0.55889243  0.47873657    -0.23700
C1031       C  0.73770859  0.55619611  0.50258177     0.19300
C1032       C  0.74457962  0.52333352  0.52775561     0.24400
C1033       C  0.71699763  0.49247973  0.52994039    -0.23600
C1034       C  0.68390409  0.49404057  0.50426768     0.19300
F1035       F  0.65761903  0.46387325  0.50359014    -0.13600
F1036       F  0.64404907  0.52677322  0.45609878    -0.15900
F1037       F  0.77735528  0.52262011  0.55117720    -0.15900
F1038       F  0.76484801  0.58559767  0.50215626    -0.13600
C1039       C  0.68572854  0.40316936  0.19420226     0.24400
C1040       C  0.67262922  0.40872846  0.23388754    -0.23700
C1041       C  0.69498683  0.43436575  0.25811595     0.19300
C1042       C  0.72797044  0.45494273  0.24268432     0.24400
C1043       C  0.73965531  0.45079895  0.20241745    -0.23600
C1044       C  0.71843209  0.42378550  0.17883653     0.19300
F1045       F  0.72872712  0.41773072  0.14018688    -0.13600
F1046       F  0.66648379  0.37815284  0.16946562    -0.15900
F1047       F  0.74741061  0.48022544  0.26697547    -0.15900
F1048       F  0.68480526  0.44002030  0.29683374    -0.13600
C1049       C  0.80674350  0.39700080  0.01217689     0.24400
C1050       C  0.84070687  0.39385859  0.98765916    -0.23700
C1051       C  0.86670497  0.42617700  0.98583544     0.19300
C1052       C  0.85924846  0.46029323  0.00832753     0.24400
C1053       C  0.82543984  0.46311772  0.03295951    -0.23600
C1054       C  0.79920807  0.43117090  0.03431256     0.19300
F1055       F  0.76698679  0.43214681  0.05852085    -0.13600
F1056       F  0.78049969  0.36691953  0.01510274    -0.15900
F1057       F  0.88533432  0.49058218  0.00604204    -0.15900
F1058       F  0.89972764  0.42473266  0.96276124    -0.13600
C1059       C  0.95098861  0.46212305  0.12999743     0.24400
C1060       C  0.93126951  0.47754205  0.16336438    -0.23700
C1061       C  0.94371596  0.46557825  0.20168244     0.19300
C1062       C  0.97609698  0.43969503  0.20656964     0.24400
C1063       C  0.99662777  0.42483988  0.17314919    -0.23600
C1064       C  0.98295353  0.43590680  0.13470731     0.19300
F1065       F  0.99991250  0.42090176  0.10124835    -0.13600
F1066       F  0.93832513  0.47124529  0.09260118    -0.15900
F1067       F  0.98695209  0.42895808  0.24407829    -0.15900
F1068       F  0.92488693  0.47948167  0.23459792    -0.13600
C1069       C  0.86863088  0.66537512  0.21630831     0.24400
C1070       C  0.88489225  0.65176777  0.18047425    -0.23700
C1071       C  0.90818307  0.67785429  0.15746873     0.19300
C1072       C  0.91587005  0.71647313  0.17095203     0.24400
C1073       C  0.89879095  0.73020339  0.20669118    -0.23600
C1074       C  0.87388537  0.70434847  0.22827892     0.19300
F1075       F  0.85561949  0.71623718  0.26232874    -0.13600
F1076       F  0.84724629  0.64088331  0.23998757    -0.15900
F1077       F  0.94155239  0.73946361  0.15024101    -0.15900
F1078       F  0.92511503  0.66530270  0.12301035    -0.13600
C1079       C  0.74489724  0.62912617  0.24672835     0.24400
C1080       C  0.73092612  0.59575844  0.22663763    -0.23700
C1081       C  0.70081430  0.57304645  0.24423612     0.19300
C1082       C  0.68801293  0.58151220  0.28312594     0.24400
C1083       C  0.70645214  0.61158642  0.30502954    -0.23600
C1084       C  0.73384273  0.63616703  0.28593304     0.19300
F1085       F  0.75012584  0.66715652  0.30511927    -0.13600
F1086       F  0.77150453  0.65347674  0.22911128    -0.15900
F1087       F  0.65940704  0.55903459  0.30012827    -0.15900
F1088       F  0.68625187  0.54092679  0.22525795    -0.13600
C1089       C  0.72577894  0.64412258  0.05225165     0.24400
C1090       C  0.76702506  0.63699451  0.05090227    -0.23700
C1091       C  0.79051530  0.66405276  0.02929991     0.19300
C1092       C  0.77306069  0.69629574  0.00863816     0.24400
C1093       C  0.73161561  0.70255823  0.00917455    -0.23600
C1094       C  0.70853575  0.67622150  0.03206268     0.19300
F1095       F  0.66856117  0.68037181  0.03397445    -0.13600
F1096       F  0.70131488  0.61932238  0.07235471    -0.15900
F1097       F  0.79677465  0.72054140  0.98703356    -0.15900
F1098       F  0.83041602  0.65924839  0.02776050    -0.13600
C1099       C  0.55973723  0.66968883  0.78464207     0.24400
C1100       C  0.53608341  0.69362842  0.75943436    -0.23700
C1101       C  0.53405276  0.73458265  0.76754401     0.19300
C1102       C  0.55491029  0.75086466  0.79990121     0.24400
C1103       C  0.57821637  0.72665017  0.82518264    -0.23600
C1104       C  0.58024901  0.68582042  0.81685337     0.19300
F1105       F  0.60138081  0.66077084  0.84059164    -0.13600
F1106       F  0.56240848  0.63001676  0.77901263    -0.15900
F1107       F  0.55219928  0.79039054  0.80637473    -0.15900
F1108       F  0.51086603  0.75888475  0.74502737    -0.13600
C1109       C  0.33093334  0.51818522  0.69933610     0.24400
C1110       C  0.35196941  0.54562810  0.72263909    -0.23700
C1111       C  0.33721188  0.55408723  0.76119166     0.19300
C1112       C  0.30458605  0.53402666  0.77686560     0.24400
C1113       C  0.28521440  0.50470211  0.75477699    -0.23600
C1114       C  0.29800473  0.49796703  0.71521939     0.19300
F1115       F  0.28003065  0.47030133  0.69246533    -0.13600
F1116       F  0.34262383  0.51012998  0.66148461    -0.15900
F1117       F  0.29268988  0.54270838  0.81453052    -0.15900
F1118       F  0.35475381  0.58145390  0.78466018    -0.13600
C1119       C  0.52935692  0.49554319  0.64356941     0.24400
C1120       C  0.52874763  0.52293133  0.67523723    -0.23700
C1121       C  0.56202383  0.52497797  0.70012553     0.19300
C1122       C  0.59525223  0.50066266  0.69336943     0.24400
C1123       C  0.59605336  0.47316879  0.66158732    -0.23600
C1124       C  0.56240043  0.47093210  0.63692678     0.19300
F1125       F  0.56138931  0.44520275  0.60600474    -0.13600
F1126       F  0.49783366  0.49268508  0.61866563    -0.15900
F1127       F  0.62710243  0.50505436  0.71756757    -0.15900
F1128       F  0.56339185  0.55217290  0.72971578    -0.13600
C1129       C  0.51749643  0.63166280  0.53121829     0.24400
C1130       C  0.51455244  0.65903152  0.56247072    -0.23700
C1131       C  0.53579413  0.69487376  0.55913162     0.19300
C1132       C  0.56049862  0.70216905  0.52617295     0.24400
C1133       C  0.56477097  0.67378642  0.49600792    -0.23600
C1134       C  0.54226658  0.63883070  0.49863003     0.19300
F1135       F  0.54456117  0.61094750  0.46970102    -0.13600
F1136       F  0.49719899  0.59718097  0.53247087    -0.15900
F1137       F  0.58151848  0.73621037  0.52475058    -0.15900
F1138       F  0.53292250  0.72296124  0.58780055    -0.13600
C1139       C  0.22446743  0.00056089  0.72111459     0.24400
C1140       C  0.23786099  0.00726247  0.76038294    -0.23700
C1141       C  0.21782163  0.03601406  0.78319051     0.19300
C1142       C  0.18442700  0.05593996  0.76809420     0.24400
C1143       C  0.16934346  0.04742046  0.72978581    -0.23600
C1144       C  0.19040902  0.01988698  0.70623884     0.19300
F1145       F  0.17762213  0.01074613  0.66907466    -0.13600
F1146       F  0.24269768  0.97324398  0.69774767    -0.15900
F1147       F  0.16642776  0.08310767  0.79181742    -0.15900
F1148       F  0.22987986  0.04427127  0.82083265    -0.13600
C1149       C  0.29463185  0.02224223  0.93824743     0.24400
C1150       C  0.32395310  0.99311140  0.93190833    -0.23700
C1151       C  0.36049596  0.99721127  0.95202601     0.19300
C1152       C  0.36815564  0.03034236  0.97592233     0.24400
C1153       C  0.33969447  0.06065814  0.98034187    -0.23600
C1154       C  0.30236249  0.05548222  0.96201213     0.19300
F1155       F  0.27288995  0.08249894  0.96724993    -0.13600
F1156       F  0.25865509  0.01931253  0.92053031    -0.15900
F1157       F  0.40394313  0.03297741  0.99406187    -0.15900
F1158       F  0.38921918  0.96911541  0.94854827    -0.13600
C1159       C  0.46006487  0.97659088  0.82614244     0.24400
C1160       C  0.43183836  0.97183818  0.79559012    -0.23700
C1161       C  0.43807695  0.99216893  0.75923135     0.19300
C1162       C  0.47040303  0.01777116  0.75425612     0.24400
C1163       C  0.49757260  0.02392778  0.78547311    -0.23600
C1164       C  0.49228663  0.00224835  0.82121282     0.19300
F1165       F  0.51826823  0.00591470  0.85182893    -0.13600
F1166       F  0.45604230  0.95726055  0.86149051    -0.15900
F1167       F  0.47421632  0.03755486  0.71915582    -0.15900
F1168       F  0.41283262  0.98738058  0.72818178    -0.13600
C1169       C  0.40041990  0.77543111  0.80520781     0.24400
C1170       C  0.37455296  0.80037589  0.78353292    -0.23700
C1171       C  0.35514430  0.78522004  0.75005227     0.19300
C1172       C  0.36219431  0.74645875  0.73771575     0.24400
C1173       C  0.39093343  0.72256801  0.75695867    -0.23600
C1174       C  0.40907159  0.73701858  0.79166459     0.19300
F1175       F  0.43736058  0.71531519  0.81065942    -0.13600
F1176       F  0.41927425  0.78915994  0.83800187    -0.15900
F1177       F  0.34255101  0.73306987  0.70517908    -0.15900
F1178       F  0.32959260  0.80814949  0.72877625    -0.13600
C1179       C  0.22367995  0.81279653  0.90954180     0.24400
C1180       C  0.26461533  0.82062669  0.91109495    -0.23700
C1181       C  0.28912979  0.79342405  0.93183721     0.19300
C1182       C  0.27278617  0.76069522  0.95211843     0.24400
C1183       C  0.23155535  0.75402217  0.95178120    -0.23600
C1184       C  0.20756984  0.78009968  0.92917211     0.19300
F1185       F  0.16780192  0.77499234  0.92694463    -0.13600
F1186       F  0.19844186  0.83736808  0.88968162    -0.15900
F1187       F  0.29733771  0.73630472  0.97302688    -0.15900
F1188       F  0.32894933  0.79841973  0.93268261    -0.13600
C1189       C  0.21758825  0.69182562  0.42047123     0.24400
C1190       C  0.23503732  0.70332336  0.45668582    -0.23700
C1191       C  0.26796030  0.68133783  0.47056271     0.19300
C1192       C  0.28181121  0.64776779  0.44989030     0.24400
C1193       C  0.26373442  0.63557799  0.41409905    -0.23600
C1194       C  0.23193101  0.65882263  0.39926699     0.19300
F1195       F  0.21431936  0.64960597  0.36417875    -0.13600
F1196       F  0.18610297  0.71237667  0.40573403    -0.15900
F1197       F  0.31193668  0.62624211  0.46602861    -0.15900
F1198       F  0.28533463  0.69075804  0.50564858    -0.13600
C1199       C  0.16226329  0.92110843  0.47346674     0.24400
C1200       C  0.19348041  0.89548597  0.48404575    -0.23700
C1201       C  0.23165479  0.90354587  0.46878097     0.19300
C1202       C  0.23813480  0.93585925  0.44301548     0.24400
C1203       C  0.20661244  0.96088300  0.43150525    -0.23600
C1204       C  0.16862493  0.95322983  0.44770474     0.19300
F1205       F  0.13701243  0.97651305  0.43829301    -0.13600
F1206       F  0.12495988  0.91432307  0.48683730    -0.15900
F1207       F  0.27520005  0.94197166  0.42870048    -0.15900
F1208       F  0.26298377  0.88017255  0.47885378    -0.13600
C1209       C  0.03410093  0.81300847  0.46674145     0.24400
C1210       C  0.06181659  0.78162773  0.46577270    -0.23700
C1211       C  0.06546740  0.75923949  0.43092508     0.19300
C1212       C  0.04284311  0.76888894  0.39717779     0.24400
C1213       C  0.01565670  0.80108399  0.39769345    -0.23600
C1214       C  0.01124548  0.82255417  0.43324882     0.19300
F1215       F  0.98522983  0.85325591  0.43568281    -0.13600
F1216       F  0.02960122  0.83509227  0.50018406    -0.15900
F1217       F  0.04833956  0.74694175  0.36380048    -0.15900
F1218       F  0.09263711  0.72951073  0.42868028    -0.13600
C1219       C  0.22035287  0.81772290  0.68216497     0.24400
C1220       C  0.19875035  0.84508329  0.65907277    -0.23700
C1221       C  0.18497843  0.88008384  0.67700612     0.19300
C1222       C  0.19670518  0.88952729  0.71601341     0.24400
C1223       C  0.22261976  0.86424580  0.73710019    -0.23600
C1224       C  0.23175261  0.82705782  0.72097514     0.19300
F1225       F  0.25315946  0.80036982  0.74248021    -0.13600
F1226       F  0.23063028  0.78193622  0.66713542    -0.15900
F1227       F  0.18485739  0.92435043  0.73213704    -0.15900
F1228       F  0.16179266  0.90582119  0.65615670    -0.13600
C1229       C  0.29867145  0.72773696  0.60364107     0.24400
C1230       C  0.26627385  0.70288715  0.59465652    -0.23700
C1231       C  0.27296902  0.66194602  0.59225968     0.19300
C1232       C  0.31108760  0.64633009  0.59901295     0.24400
C1233       C  0.34319634  0.67163524  0.60734577    -0.23600
C1234       C  0.33634596  0.71242756  0.60908368     0.19300
F1235       F  0.36600766  0.73809840  0.61709281    -0.13600
F1236       F  0.29479213  0.76767182  0.60617342    -0.15900
F1237       F  0.31651384  0.60655429  0.59719283    -0.15900
F1238       F  0.24286067  0.63716245  0.58338656    -0.13600
C1239       C  0.04702711  0.74798749  0.65536830     0.24400
C1240       C  0.07965865  0.72755522  0.63882219    -0.23700
C1241       C  0.09039248  0.69063428  0.65599170     0.19300
C1242       C  0.06802770  0.67388340  0.68699608     0.24400
C1243       C  0.03477268  0.69373206  0.70253153    -0.23600
C1244       C  0.02506977  0.73140531  0.68689231     0.19300
F1245       F  0.99282179  0.75138422  0.70053786    -0.13600
F1246       F  0.03542144  0.78358746  0.64035830    -0.15900
F1247       F  0.07885160  0.63789509  0.70167220    -0.15900
F1248       F  0.12249123  0.67019396  0.64266122    -0.13600
loop_ 
_geom_bond_atom_site_label_1 
_geom_bond_atom_site_label_2 
_geom_bond_distance 
_geom_bond_site_symmetry_2 
_ccdc_geom_bond_type 
O1           C16   1.245       .  A
O1           Al9   1.844       .  S
C2           O12   1.254       .  A
C2            O3   1.274       .  A
C2         C1210   1.479       .  S
O3           Al5   1.961       .  S
O4            C6   1.260       .  A
O4           Al5   1.899       .  S
Al5          O13   1.891       .  S
Al5          O15   1.997       .  S
Al5          O14   1.782       .  S
C6           O19   1.274       .  A
C6         C1190   1.501       .  S
O7           C17   1.264       .  A
O7           Al9   1.885       .  S
O8           C21   1.251       .  A
O8          Al18   1.877       .  S
Al9          O22   1.947       .  S
Al9          O19   1.988       .  S
Al9          O14   1.762       .  S
O10          C17   1.279       .  A
O10         Al18   1.972       .  S
O11          C20   1.272       .  A
O11         Al18   1.957       .  S
O12         Al18   1.849       .  S
O13          C20   1.260       .  A
O14         Al18   1.773       .  S
O15          C16   1.275       .  A
C16        C1230   1.484       .  S
C17        C1200   1.497       .  S
C20        C1240   1.505       .  S
C21          O22   1.267       .  A
C21        C1220   1.474       .  S
O23          C38   1.258       .  A
O23         Al31   1.873       .  S
C24          O34   1.258       .  A
C24          O25   1.272       .  A
C24        C1150   1.503       .  S
O25         Al27   1.959       .  S
O26          C28   1.260       .  A
O26         Al27   1.896       .  S
Al27         O35   1.886       .  S
Al27         O37   1.966       .  S
Al27         O36   1.782       .  S
C28          O41   1.268       .  A
C28        C1140   1.500   1_565  S
O29          C39   1.267       .  A
O29         Al31   1.907       .  S
O30          C43   1.253       .  A
O30         Al40   1.883       .  S
Al31         O44   1.935       .  S
Al31         O41   1.954       .  S
Al31         O36   1.780       .  S
O32          C39   1.273       .  A
O32         Al40   1.953       .  S
O33          C42   1.267       .  A
O33         Al40   1.947       .  S
O34         Al40   1.884       .  S
O35          C42   1.258       .  A
O36         Al40   1.788       .  S
O37          C38   1.271       .  A
C38        C1223   1.477       .  S
C39        C1160   1.504       .  S
C42        C1180   1.503       .  S
C43          O44   1.266       .  A
C43        C1170   1.481       .  S
O45          C60   1.255       .  A
O45         Al53   1.854       .  S
C46          O56   1.256       .  A
C46          O47   1.276       .  A
C46        C1120   1.492       .  S
O47         Al49   1.970       .  S
O48          C50   1.258       .  A
O48         Al49   1.887       .  S
Al49         O57   1.881       .  S
Al49         O59   1.987       .  S
Al49         O58   1.768       .  S
C50          O63   1.268       .  A
C50        C1100   1.502       .  S
O51          C61   1.263       .  A
O51         Al53   1.883       .  S
O52          C65   1.252       .  A
O52         Al62   1.873       .  S
Al53         O66   1.932       .  S
Al53         O63   1.964       .  S
Al53         O58   1.774       .  S
O54          C61   1.279       .  A
O54         Al62   1.965       .  S
O55          C64   1.269       .  A
O55         Al62   1.957       .  S
O56         Al62   1.866       .  S
O57          C64   1.257       .  A
O58         Al62   1.782       .  S
O59          C60   1.278       .  A
C60        C1173   1.484       .  S
C61        C1130   1.493       .  S
C64        C1110   1.506       .  S
C65          O66   1.267       .  A
C65        C1233   1.478       .  S
O67          C82   1.258       .  A
O67         Al75   1.856       .  S
C68          O78   1.254       .  A
C68          O69   1.269       .  A
C68        C1053   1.485       .  S
O69         Al71   1.938       .  S
O70          C72   1.259       .  A
O70         Al71   1.900       .  S
Al71         O79   1.882       .  S
Al71         O81   1.956       .  S
Al71         O80   1.780       .  S
C72          O85   1.269       .  A
C72        C1043   1.511       .  S
O73          C83   1.264       .  A
O73         Al75   1.886       .  S
O74          C87   1.253       .  A
O74         Al84   1.884       .  S
Al75         O88   1.943       .  S
Al75         O85   1.973       .  S
Al75         O80   1.779       .  S
O76          C83   1.275       .  A
O76         Al84   1.952       .  S
O77          C86   1.269       .  A
O77         Al84   1.953       .  S
O78         Al84   1.867       .  S
O79          C86   1.258       .  A
O80         Al84   1.788       .  S
O81          C82   1.271       .  A
C82        C1080   1.468       .  S
C83        C1060   1.484       .  S
C86        C1090   1.506       .  S
C87          O88   1.267       .  A
C87        C1070   1.484       .  S
O89         C104   1.247       .  A
O89         Al97   1.850       .  S
C90         O100   1.255       .  A
C90          O91   1.275       .  A
C90        C1133   1.489       .  S
O91         Al93   1.969       .  S
O92          C94   1.260       .  A
O92         Al93   1.885       .  S
Al93        O101   1.881       .  S
Al93        O103   1.999       .  S
Al93        O102   1.780       .  S
C94         O107   1.273       .  A
C94        C1000   1.497       .  S
O95         C105   1.263       .  A
O95         Al97   1.889       .  S
O96         C109   1.250       .  A
O96        Al106   1.868       .  S
Al97        O110   1.937       .  S
Al97        O107   1.976       .  S
Al97        O102   1.762       .  S
O98         C105   1.278       .  A
O98        Al106   1.970       .  S
O99         C108   1.274       .  A
O99        Al106   1.963       .  S
O100       Al106   1.857       .  S
O101        C108   1.259       .  A
O102       Al106   1.772       .  S
O103        C104   1.273       .  A
C104       C1010   1.488       .  S
C105       C1030   1.503       .  S
C108       C1020   1.503       .  S
C109        O110   1.267       .  A
C109       C1083   1.468       .  S
O111        C126   1.253       .  A
O111       Al119   1.848       .  S
C112        O122   1.257       .  A
C112        O113   1.277       .  A
C112        C980   1.491   1_655  S
O113       Al115   1.973       .  S
O114        C116   1.259       .  A
O114       Al115   1.891   1_455  S
Al115       O123   1.883       .  S
Al115       O125   1.998       .  S
Al115       O124   1.769       .  S
C116        O129   1.268   1_455  A
C116        C970   1.500       .  S
O117        C127   1.261       .  A
O117       Al119   1.869       .  S
O118        C131   1.253       .  A
O118       Al128   1.883       .  S
Al119       O132   1.934       .  S
Al119       O129   1.960       .  S
Al119       O124   1.766       .  S
O120        C127   1.279       .  A
O120       Al128   1.973       .  S
O121        C130   1.270       .  A
O121       Al128   1.951       .  S
O122       Al128   1.864       .  S
O123        C130   1.258       .  A
O124       Al128   1.780       .  S
O125        C126   1.279       .  A
C126       C1073   1.490       .  S
C127       C1213   1.492   1_655  S
C130        C993   1.499       .  S
C131        O132   1.267       .  A
C131       C1013   1.483       .  S
O133        C148   1.256       .  A
O133       Al141   1.853       .  S
C134        O144   1.262       .  A
C134        O135   1.273       .  A
C134       C1163   1.504       .  S
O135       Al137   1.957       .  S
O136        C138   1.259       .  A
O136       Al137   1.897       .  S
Al137       O145   1.883       .  S
Al137       O147   1.977       .  S
Al137       O146   1.779       .  S
C138        O151   1.266       .  A
C138        C920   1.494       .  S
O139        C149   1.261       .  A
O139       Al141   1.876       .  S
O140        C153   1.258       .  A
O140       Al150   1.899       .  S
Al141       O154   1.934       .  S
Al141       O151   1.947       .  S
Al141       O146   1.772       .  S
O142        C149   1.274       .  A
O142       Al150   1.959       .  S
O143        C152   1.268       .  A
O143       Al150   1.947       .  S
O144       Al150   1.896       .  S
O145        C152   1.258       .  A
O146       Al150   1.785       .  S
O147        C148   1.273       .  A
C148        C950   1.481       .  S
C149        C930   1.492       .  S
C152        C960   1.500       .  S
C153        O154   1.266       .  A
C153        C943   1.487       .  S
O155        C170   1.255       .  A
O155       Al163   1.850       .  S
C156        O166   1.257       .  A
C156        O157   1.278       .  A
C156        C890   1.488       .  S
O157       Al159   1.975       .  S
O158        C160   1.258       .  A
O158       Al159   1.893       .  S
Al159       O167   1.901       .  S
Al159       O169   1.992       .  S
Al159       O168   1.772       .  S
C160        O173   1.265       .  A
C160        C880   1.494   1_556  S
O161        C171   1.261       .  A
O161       Al163   1.877       .  S
O162        C175   1.256       .  A
O162       Al172   1.881       .  S
Al163       O176   1.937       .  S
Al163       O173   1.949       .  S
Al163       O168   1.769       .  S
O164        C171   1.275       .  A
O164       Al172   1.964       .  S
O165        C174   1.267       .  A
O165       Al172   1.940       .  S
O166       Al172   1.857       .  S
O167        C174   1.259       .  A
O168       Al172   1.781       .  S
O169        C170   1.278       .  A
C170        C940   1.495       .  S
C171       C1050   1.492       .  S
C174        C913   1.504       .  S
C175        O176   1.268       .  A
C175        C900   1.483       .  S
O177        C192   1.249       .  A
O177       Al185   1.856       .  S
C178        O188   1.257       .  A
C178        O179   1.274       .  A
C178       C1033   1.496       .  S
O179       Al181   1.971       .  S
O180        C182   1.261       .  A
O180       Al181   1.891       .  S
Al181       O189   1.888       .  S
Al181       O191   1.991       .  S
Al181       O190   1.782       .  S
C182        O195   1.271       .  A
C182        C860   1.490       .  S
O183        C193   1.261       .  A
O183       Al185   1.881       .  S
O184        C197   1.253       .  A
O184       Al194   1.889       .  S
Al185       O198   1.937       .  S
Al185       O195   1.968       .  S
Al185       O190   1.765       .  S
O186        C193   1.277       .  A
O186       Al194   1.970       .  S
O187        C196   1.271       .  A
O187       Al194   1.948       .  S
O188       Al194   1.868       .  S
O189        C196   1.261       .  A
O190       Al194   1.776       .  S
O191        C192   1.273       .  A
C192        C903   1.487       .  S
C193       C1123   1.502       .  S
C196        C870   1.496       .  S
C197        O198   1.266       .  A
C197        C953   1.480       .  S
O199        C214   1.253       .  A
O199       Al207   1.847       .  S
C200        O210   1.257       .  A
C200        O201   1.273       .  A
C200        C933   1.475   1_554  S
O201       Al203   1.953       .  S
O202        C204   1.260       .  A
O202       Al203   1.897   1_556  S
Al203       O211   1.884       .  S
Al203       O213   1.968       .  S
Al203       O212   1.776       .  S
C204        O217   1.270   1_556  A
C204        C820   1.507       .  S
O205        C215   1.265       .  A
O205       Al207   1.893       .  S
O206        C219   1.252       .  A
O206       Al216   1.869       .  S
Al207       O220   1.938       .  S
Al207       O217   1.971       .  S
Al207       O212   1.771       .  S
O208        C215   1.278       .  A
O208       Al216   1.977       .  S
O209        C218   1.269       .  A
O209       Al216   1.956       .  S
O210       Al216   1.860       .  S
O211        C218   1.257       .  A
O212       Al216   1.784       .  S
O213        C214   1.272       .  A
C214        C830   1.481       .  S
C215       C1153   1.504   1_554  S
C218        C850   1.505       .  S
C219        O220   1.267       .  A
C219        C840   1.476       .  S
O221        C236   1.255       .  A
O221       Al229   1.858       .  S
C222        O232   1.258       .  A
C222        O223   1.272       .  A
C222       C1063   1.497   1_455  S
O223       Al225   1.953       .  S
O224        C226   1.261       .  A
O224       Al225   1.902       .  S
Al225       O233   1.891       .  S
Al225       O235   1.968       .  S
Al225       O234   1.777       .  S
C226        O239   1.265       .  A
C226        C790   1.489   1_455  S
O227        C237   1.261       .  A
O227       Al229   1.880       .  S
O228        C241   1.253       .  A
O228       Al238   1.883       .  S
Al229       O242   1.923       .  S
Al229       O239   1.938       .  S
Al229       O234   1.769       .  S
O230        C237   1.277       .  A
O230       Al238   1.967       .  S
O231        C240   1.271       .  A
O231       Al238   1.961       .  S
O232       Al238   1.873       .  S
O233        C240   1.259       .  A
O234       Al238   1.779       .  S
O235        C236   1.272       .  A
C236        C803   1.474       .  S
C237        C893   1.498       .  S
C240        C813   1.509       .  S
C241        O242   1.264       .  A
C241        C833   1.475       .  S
O243        C258   1.250       .  A
O243       Al251   1.855       .  S
C244        O254   1.255   1_565  A
C244        O245   1.275   1_565  A
C244       C1203   1.502       .  S
O245       Al247   1.972       .  S
O246        C248   1.262       .  A
O246       Al247   1.893   1_565  S
Al247       O255   1.889       .  S
Al247       O257   1.979       .  S
Al247       O256   1.781       .  S
C248        O261   1.273       .  A
C248        C770   1.504       .  S
O249        C259   1.260       .  A
O249       Al251   1.877       .  S
O250        C263   1.250       .  A
O250       Al260   1.864       .  S
Al251       O264   1.946       .  S
Al251       O261   1.978   1_545  S
Al251       O256   1.767       .  S
O252        C259   1.275       .  A
O252       Al260   1.965       .  S
O253        C262   1.272       .  A
O253       Al260   1.951       .  S
O254       Al260   1.866       .  S
O255        C262   1.260       .  A
O256       Al260   1.778       .  S
O257        C258   1.271       .  A
C258        C843   1.471       .  S
C259        C983   1.499   1_545  S
C262        C780   1.498       .  S
C263        O264   1.268       .  A
C263        C800   1.471       .  S
O265        C280   1.268       .  A
O265       Al273   1.950       .  S
C266        O276   1.277       .  A
C266        O267   1.258       .  A
C266        C743   1.494   1_455  S
O267       Al269   1.870       .  S
O268        C270   1.276       .  A
O268       Al269   1.959       .  S
Al269       O277   1.953       .  S
Al269       O279   1.879       .  S
Al269       O278   1.773       .  S
C270        O283   1.262       .  A
C270        C730   1.491       .  S
O271        C281   1.273       .  A
O271       Al273   1.979       .  S
O272        C285   1.277       .  A
O272       Al282   2.007       .  S
Al273       O286   1.836       .  S
Al273       O283   1.879       .  S
Al273       O278   1.764       .  S
O274        C281   1.258       .  A
O274       Al282   1.889       .  S
O275        C284   1.260       .  A
O275       Al282   1.890       .  S
O276       Al282   1.974       .  S
O277        C284   1.270       .  A
O278       Al282   1.778       .  S
O279        C280   1.253       .  A
C280        C760   1.472       .  S
C281        C910   1.496   1_455  S
C284       C1143   1.504       .  S
C285        O286   1.246       .  A
C285        C750   1.492       .  S
O287        C302   1.267       .  A
O287       Al295   1.933       .  S
C288        O298   1.274       .  A
C288        O289   1.257       .  A
C288        C700   1.490       .  S
O289       Al291   1.867       .  S
O290        C292   1.278       .  A
O290       Al291   1.970       .  S
Al291       O299   1.961       .  S
Al291       O301   1.885       .  S
Al291       O300   1.782       .  S
C292        O305   1.263       .  A
C292        C710   1.495       .  S
O293        C303   1.266       .  A
O293       Al295   1.959       .  S
O294        C307   1.275       .  A
O294       Al304   1.976       .  S
Al295       O308   1.849       .  S
Al295       O305   1.880       .  S
Al295       O300   1.774       .  S
O296        C303   1.258       .  A
O296       Al304   1.895       .  S
O297        C306   1.258       .  A
O297       Al304   1.888       .  S
O298       Al304   1.957       .  S
O299        C306   1.270       .  A
O300       Al304   1.773       .  S
O301        C302   1.254       .  A
C302        C753   1.478       .  S
C303       C1113   1.500       .  S
C306        C823   1.511       .  S
C307        O308   1.256       .  A
C307        C720   1.478       .  S
O309        C324   1.269       .  A
O309       Al317   1.943       .  S
C310        O320   1.273       .  A
C310        O311   1.257       .  A
C310        C690   1.496       .  S
O311       Al313   1.874       .  S
O312        C314   1.273       .  A
O312       Al313   1.957       .  S
Al313       O321   1.953       .  S
Al313       O323   1.865       .  S
Al313       O322   1.779       .  S
C314        O327   1.261       .  A
C314        C680   1.498       .  S
O315        C325   1.273       .  A
O315       Al317   1.970       .  S
O316        C329   1.271       .  A
O316       Al326   1.978       .  S
Al317       O330   1.864       .  S
Al317       O327   1.884       .  S
Al317       O322   1.772       .  S
O318        C325   1.260       .  A
O318       Al326   1.885       .  S
O319        C328   1.261       .  A
O319       Al326   1.891       .  S
O320       Al326   1.967       .  S
O321        C328   1.272       .  A
O322       Al326   1.776       .  S
O323        C324   1.252       .  A
C324        C723   1.473       .  S
C325        C783   1.500       .  S
C328        C923   1.502       .  S
C329        O330   1.252       .  A
C329        C763   1.475       .  S
O331        C346   1.266       .  A
O331       Al339   1.931       .  S
C332        O342   1.276   1_565  A
C332        O333   1.256   1_565  A
C332        C650   1.495       .  S
O333       Al335   1.865       .  S
O334        C336   1.278       .  A
O334       Al335   1.977       .  S
Al335       O343   1.950       .  S
Al335       O345   1.880       .  S
Al335       O344   1.783       .  S
C336        O349   1.263   1_545  A
C336        C640   1.497   1_545  S
O337        C347   1.264       .  A
O337       Al339   1.947   1_565  S
O338        C351   1.277       .  A
O338       Al348   1.984       .  S
Al339       O352   1.858       .  S
Al339       O349   1.877   1_545  S
Al339       O344   1.771       .  S
O340        C347   1.258       .  A
O340       Al348   1.898   1_565  S
O341        C350   1.256       .  A
O341       Al348   1.881       .  S
O342       Al348   1.967       .  S
O343        C350   1.269       .  A
O344       Al348   1.774       .  S
O345        C346   1.252       .  A
C346        C670   1.480       .  S
C347        C990   1.489       .  S
C350        C883   1.502       .  S
C351        O352   1.258       .  A
C351        C663   1.489       .  S
O353        C368   1.266       .  A
O353       Al361   1.930       .  S
C354        O364   1.269       .  A
C354        O355   1.257       .  A
C354        C733   1.485       .  S
O355       Al357   1.869       .  S
O356        C358   1.272       .  A
O356       Al357   1.953       .  S
Al357       O365   1.941       .  S
Al357       O367   1.886       .  S
Al357       O366   1.779       .  S
C358        O371   1.262       .  A
C358        C623   1.483       .  S
O359        C369   1.270       .  A
O359       Al361   1.954       .  S
O360        C373   1.266       .  A
O360       Al370   1.947       .  S
Al361       O374   1.862       .  S
Al361       O371   1.891       .  S
Al361       O366   1.775       .  S
O362        C369   1.260       .  A
O362       Al370   1.887       .  S
O363        C372   1.259       .  A
O363       Al370   1.889       .  S
O364       Al370   1.945       .  S
O365        C372   1.268       .  A
O366       Al370   1.783       .  S
O367        C368   1.255       .  A
C368        C660   1.480       .  S
C369        C873   1.497       .  S
C372        C793   1.496       .  S
C373        O374   1.255       .  A
C373        C630   1.463       .  S
O375        C390   1.263       .  A
O375       Al383   1.930       .  S
C376        O386   1.277       .  A
C376        O377   1.254       .  A
C376        C610   1.500       .  S
O377       Al379   1.854       .  S
O378        C380   1.279       .  A
O378       Al379   1.975       .  S
Al379       O387   1.964       .  S
Al379       O389   1.869       .  S
Al379       O388   1.773       .  S
C380        O393   1.262       .  A
C380        C693   1.499       .  S
O381        C391   1.269       .  A
O381       Al383   1.965       .  S
O382        C395   1.275       .  A
O382       Al392   2.001       .  S
Al383       O396   1.846       .  S
Al383       O393   1.878       .  S
Al383       O388   1.765       .  S
O384        C391   1.263       .  A
O384       Al392   1.897       .  S
O385        C394   1.263       .  A
O385       Al392   1.907       .  S
O386       Al392   1.980       .  S
O387        C394   1.273       .  A
O388       Al392   1.780       .  S
O389        C390   1.250       .  A
C390        C633   1.461       .  S
C391        C853   1.499       .  S
C394       C1040   1.516       .  S
C395        O396   1.247       .  A
C395        C673   1.489       .  S
O397        C412   1.267       .  A
O397       Al405   1.931       .  S
C398        O408   1.275   1_556  A
C398        O399   1.255   1_556  A
C398        C580   1.485       .  S
O399       Al401   1.853       .  S
O400        C402   1.280       .  A
O400       Al401   1.976       .  S
Al401       O409   1.956       .  S
Al401       O411   1.876       .  S
Al401       O410   1.778       .  S
C402        O415   1.263   1_554  A
C402        C703   1.495   1_554  S
O403        C413   1.267   1_554  A
O403       Al405   1.966       .  S
O404        C417   1.278       .  A
O404       Al414   1.986       .  S
Al405       O418   1.843       .  S
Al405       O415   1.875   1_554  S
Al405       O410   1.770       .  S
O406        C413   1.256       .  A
O406       Al414   1.884   1_556  S
O407        C416   1.257       .  A
O407       Al414   1.878       .  S
O408       Al414   1.964       .  S
O409        C416   1.269       .  A
O410       Al414   1.766       .  S
O411        C412   1.253       .  A
C412        C600   1.477       .  S
C413       C1183   1.501       .  S
C416        C973   1.501       .  S
C417        O418   1.254       .  A
C417        C593   1.480       .  S
O419        C434   1.266       .  A
O419       Al427   1.934       .  S
C420        O430   1.273       .  A
C420        O421   1.256       .  A
C420        C643   1.492       .  S
O421       Al423   1.872       .  S
O422        C424   1.273       .  A
O422       Al423   1.953       .  S
Al423       O431   1.949       .  S
Al423       O433   1.868       .  S
Al423       O432   1.786       .  S
C424        O437   1.261       .  A
C424        C560   1.495       .  S
O425        C435   1.268       .  A
O425       Al427   1.952       .  S
O426        C439   1.272       .  A
O426       Al436   1.971       .  S
Al427       O440   1.867       .  S
Al427       O437   1.883       .  S
Al427       O432   1.776       .  S
O428        C435   1.262       .  A
O428       Al436   1.899       .  S
O429        C438   1.261       .  A
O429       Al436   1.898       .  S
O430       Al436   1.960       .  S
O431        C438   1.269       .  A
O432       Al436   1.777       .  S
O433        C434   1.252       .  A
C434        C590   1.471       .  S
C435       C1023   1.500       .  S
C438        C773   1.506       .  S
C439        O440   1.256       .  A
C439        C573   1.476       .  S
O441        C456   1.266       .  A
O441       Al449   1.940       .  S
C442        O452   1.273       .  A
C442        O443   1.259       .  A
C442        C683   1.483       .  S
O443       Al445   1.872       .  S
O444        C446   1.277       .  A
O444       Al445   1.970       .  S
Al445       O453   1.951       .  S
Al445       O455   1.888       .  S
Al445       O454   1.777       .  S
C446        O459   1.262       .  A
C446        C613   1.498       .  S
O447        C457   1.271       .  A
O447       Al449   1.971       .  S
O448        C461   1.272       .  A
O448       Al458   1.981       .  S
Al449       O462   1.840       .  S
Al449       O459   1.882       .  S
Al449       O454   1.767       .  S
O450        C457   1.263       .  A
O450       Al458   1.905       .  S
O451        C460   1.263       .  A
O451       Al458   1.911       .  S
O452       Al458   1.958       .  S
O453        C460   1.271       .  A
O454       Al458   1.783       .  S
O455        C456   1.253       .  A
C456        C570   1.476       .  S
C457        C810   1.501       .  S
C460       C1193   1.509       .  S
C461        O462   1.246       .  A
C461        C603   1.482       .  S
O463        C478   1.269       .  A
O463       Al471   1.943       .  S
C464        O474   1.272       .  A
C464        O465   1.259       .  A
C464        C563   1.483       .  S
O465       Al467   1.872       .  S
O466        C468   1.278       .  A
O466       Al467   1.975       .  S
Al467       O475   1.958       .  S
Al467       O477   1.887       .  S
Al467       O476   1.777       .  S
C468        O481   1.260       .  A
C468        C653   1.503       .  S
O469        C479   1.273       .  A
O469       Al471   1.981       .  S
O470        C483   1.272       .  A
O470       Al480   1.986       .  S
Al471       O484   1.849       .  S
Al471       O481   1.880       .  S
Al471       O476   1.763       .  S
O472        C479   1.261       .  A
O472       Al480   1.889       .  S
O473        C482   1.261       .  A
O473       Al480   1.887       .  S
O474       Al480   1.953       .  S
O475        C482   1.272       .  A
O476       Al480   1.779       .  S
O477        C478   1.254       .  A
C478        C540   1.483       .  S
C479       C1093   1.506   1_556  S
C482       C1103   1.501       .  S
C483        O484   1.247       .  A
C483        C550   1.478       .  S
O485        C500   1.267       .  A
O485       Al493   1.933       .  S
C486        O496   1.275       .  A
C486        O487   1.256       .  A
C486        C620   1.497       .  S
O487       Al489   1.864       .  S
O488        C490   1.276       .  A
O488       Al489   1.965       .  S
Al489       O497   1.955       .  S
Al489       O499   1.882       .  S
Al489       O498   1.782       .  S
C490        O503   1.264       .  A
C490        C740   1.504       .  S
O491        C501   1.266       .  A
O491       Al493   1.953       .  S
O492        C505   1.276       .  A
O492       Al502   1.984       .  S
Al493       O506   1.870       .  S
Al493       O503   1.894       .  S
Al493       O498   1.775       .  S
O494        C501   1.258       .  A
O494       Al502   1.886       .  S
O495        C504   1.258       .  A
O495       Al502   1.884       .  S
O496       Al502   1.971       .  S
O497        C504   1.270       .  A
O498       Al502   1.775       .  S
O499        C500   1.254       .  A
C500        C530   1.477       .  S
C501        C963   1.497   1_565  S
C504       C1003   1.504       .  S
C505        O506   1.258       .  A
C505        C543   1.488       .  S
O507        C522   1.267       .  A
O507       Al515   1.929       .  S
C508        O518   1.274       .  A
C508        O509   1.258       .  A
C508        C713   1.477   1_655  S
O509       Al511   1.862       .  S
O510        C512   1.276       .  A
O510       Al511   1.967       .  S
Al511       O519   1.945       .  S
Al511       O521   1.877       .  S
Al511       O520   1.782       .  S
C512        O525   1.261       .  A
C512        C583   1.496   1_655  S
O513        C523   1.267   1_655  A
O513       Al515   1.950       .  S
O514        C527   1.273       .  A
O514       Al524   1.973       .  S
Al515       O528   1.849       .  S
Al515       O525   1.880       .  S
Al515       O520   1.766       .  S
O516        C523   1.262       .  A
O516       Al524   1.905   1_455  S
O517        C526   1.260       .  A
O517       Al524   1.893       .  S
O518       Al524   1.955       .  S
O519        C526   1.267       .  A
O520       Al524   1.774       .  S
O521        C522   1.253       .  A
C522        C553   1.481       .  S
C523       C1243   1.494       .  S
C526        C863   1.500       .  S
C527        O528   1.253       .  A
C527        C533   1.482       .  S
C529        C530   1.400       .  A
C529        C534   1.389       .  A
C529        F536   1.356       .  S
C530        C531   1.411       .  A
C531        C532   1.407       .  A
C531        F538   1.358       .  S
C532        C533   1.409       .  A
C532        F537   1.358       .  S
C533        C534   1.411       .  A
C534        F535   1.359       .  S
C539        C540   1.410       .  A
C539        C544   1.410       .  A
C539        F546   1.357       .  S
C540        C541   1.403       .  A
C541        C542   1.395       .  A
C541        F548   1.356       .  S
C542        C543   1.407       .  A
C542        F547   1.355       .  S
C543        C544   1.409       .  A
C544        F545   1.357       .  S
C549        C550   1.400       .  A
C549        C554   1.406       .  A
C549        F556   1.357       .  S
C550        C551   1.414       .  A
C551        C552   1.383       .  A
C551        F558   1.357       .  S
C552        C553   1.400       .  A
C552        F557   1.359       .  S
C553        C554   1.418       .  A
C554        F555   1.357       .  S
C559        C560   1.409       .  A
C559        C564   1.400   1_554  A
C559        F566   1.358       .  S
C560        C561   1.416       .  A
C561        C562   1.403       .  A
C561        F568   1.358       .  S
C562        C563   1.403   1_554  A
C562        F567   1.358       .  S
C563        C564   1.408       .  A
C564        F565   1.358       .  S
C569        C570   1.404       .  A
C569        C574   1.396       .  A
C569        F576   1.356       .  S
C570        C571   1.405       .  A
C571        C572   1.407       .  A
C571        F578   1.357       .  S
C572        C573   1.408       .  A
C572        F577   1.356       .  S
C573        C574   1.404       .  A
C574        F575   1.357       .  S
C579        C580   1.402       .  A
C579        C584   1.404       .  A
C579        F586   1.358       .  S
C580        C581   1.411       .  A
C581        C582   1.400       .  A
C581        F588   1.359       .  S
C582        C583   1.408       .  A
C582        F587   1.358   1_455  S
C583        C584   1.418       .  A
C584        F585   1.358       .  S
C589        C590   1.409       .  A
C589        C594   1.404       .  A
C589        F596   1.358       .  S
C590        C591   1.399       .  A
C591        C592   1.390       .  A
C591        F598   1.357       .  S
C592        C593   1.413       .  A
C592        F597   1.359       .  S
C593        C594   1.406       .  A
C594        F595   1.357       .  S
C599        C600   1.399       .  A
C599        C604   1.382       .  A
C599        F606   1.359       .  S
C600        C601   1.415       .  A
C601        C602   1.405       .  A
C601        F608   1.358       .  S
C602        C603   1.404       .  A
C602        F607   1.358       .  S
C603        C604   1.417       .  A
C604        F605   1.359       .  S
C609        C610   1.418       .  A
C609        C614   1.401       .  A
C609        F616   1.359       .  S
C610        C611   1.406       .  A
C611        C612   1.408       .  A
C611        F618   1.357       .  S
C612        C613   1.416       .  A
C612        F617   1.358       .  S
C613        C614   1.404       .  A
C614        F615   1.358       .  S
C619        C620   1.409   1_545  A
C619        C624   1.409       .  A
C619        F626   1.357   1_545  S
C620        C621   1.418   1_565  A
C621        C622   1.401       .  A
C621        F628   1.358       .  S
C622        C623   1.400       .  A
C622        F627   1.358       .  S
C623        C624   1.409       .  A
C624        F625   1.358       .  S
C629        C630   1.406       .  A
C629        C634   1.400       .  A
C629        F636   1.356       .  S
C630        C631   1.402       .  A
C631        C632   1.391       .  A
C631        F638   1.358       .  S
C632        C633   1.403       .  A
C632        F637   1.355       .  S
C633        C634   1.402       .  A
C634        F635   1.358       .  S
C639        C640   1.408       .  A
C639        C644   1.406       .  A
C639        F646   1.358       .  S
C640        C641   1.416       .  A
C641        C642   1.401       .  A
C641        F648   1.358       .  S
C642        C643   1.403       .  A
C642        F647   1.357       .  S
C643        C644   1.415       .  A
C644        F645   1.358       .  S
C649        C650   1.414   1_556  A
C649        C654   1.404       .  A
C649        F656   1.358       .  S
C650        C651   1.404       .  A
C651        C652   1.406       .  A
C651        F658   1.358       .  S
C652        C653   1.419   1_554  A
C652        F657   1.358       .  S
C653        C654   1.408       .  A
C654        F655   1.358       .  S
C659        C660   1.401       .  A
C659        C664   1.391       .  A
C659        F666   1.358       .  S
C660        C661   1.410       .  A
C661        C662   1.408       .  A
C661        F668   1.358       .  S
C662        C663   1.410       .  A
C662        F667   1.357       .  S
C663        C664   1.413       .  A
C664        F665   1.357       .  S
C669        C670   1.399       .  A
C669        C674   1.384       .  A
C669        F676   1.359       .  S
C670        C671   1.415       .  A
C671        C672   1.408       .  A
C671        F678   1.358       .  S
C672        C673   1.405       .  A
C672        F677   1.357       .  S
C673        C674   1.419       .  A
C674        F675   1.359       .  S
C679        C680   1.417       .  A
C679        C684   1.404       .  A
C679        F686   1.358       .  S
C680        C681   1.410       .  A
C681        C682   1.402       .  A
C681        F688   1.357       .  S
C682        C683   1.407       .  A
C682        F687   1.358       .  S
C683        C684   1.403       .  A
C684        F685   1.357       .  S
C689        C690   1.406       .  A
C689        C694   1.406       .  A
C689        F696   1.358       .  S
C690        C691   1.414       .  A
C691        C692   1.403       .  A
C691        F698   1.358       .  S
C692        C693   1.406       .  A
C692        F697   1.357       .  S
C693        C694   1.417       .  A
C694        F695   1.358       .  S
C699        C700   1.404       .  A
C699        C704   1.403       .  A
C699        F706   1.358       .  S
C700        C701   1.413       .  A
C701        C702   1.401       .  A
C701        F708   1.358       .  S
C702        C703   1.407       .  A
C702        F707   1.358   1_556  S
C703        C704   1.417       .  A
C704        F705   1.358       .  S
C709        C710   1.417       .  A
C709        C714   1.401       .  A
C709        F716   1.358       .  S
C710        C711   1.410       .  A
C711        C712   1.401       .  A
C711        F718   1.358       .  S
C712        C713   1.407       .  A
C712        F717   1.358   1_455  S
C713        C714   1.400       .  A
C714        F715   1.358       .  S
C719        C720   1.409       .  A
C719        C724   1.392       .  A
C719        F726   1.357       .  S
C720        C721   1.406       .  A
C721        C722   1.405       .  A
C721        F728   1.358       .  S
C722        C723   1.410       .  A
C722        F727   1.358       .  S
C723        C724   1.399       .  A
C724        F725   1.356       .  S
C729        C730   1.406       .  A
C729        C734   1.397   1_455  A
C729        F736   1.357       .  S
C730        C731   1.416   1_455  A
C731        C732   1.404       .  A
C731        F738   1.358       .  S
C732        C733   1.406       .  A
C732        F737   1.358       .  S
C733        C734   1.409       .  A
C734        F735   1.358       .  S
C739        C740   1.418   1_545  A
C739        C744   1.408       .  A
C739        F746   1.358       .  S
C740        C741   1.410       .  A
C741        C742   1.404       .  A
C741        F748   1.358       .  S
C742        C743   1.411   1_565  A
C742        F747   1.358   1_655  S
C743        C744   1.405       .  A
C744        F745   1.357       .  S
C749        C750   1.420       .  A
C749        C754   1.384       .  A
C749        F756   1.359       .  S
C750        C751   1.408       .  A
C751        C752   1.410       .  A
C751        F758   1.357       .  S
C752        C753   1.413       .  A
C752        F757   1.357       .  S
C753        C754   1.397       .  A
C754        F755   1.359       .  S
C759        C760   1.403       .  A
C759        C764   1.398       .  A
C759        F766   1.357       .  S
C760        C761   1.404       .  A
C761        C762   1.406       .  A
C761        F768   1.358       .  S
C762        C763   1.408       .  A
C762        F767   1.356       .  S
C763        C764   1.405       .  A
C764        F765   1.357       .  S
C769        C770   1.410       .  A
C769        C774   1.404       .  A
C769        F776   1.358       .  S
C770        C771   1.413       .  A
C771        C772   1.410       .  A
C771        F778   1.354       .  S
C772        C773   1.412       .  A
C772        F777   1.358       .  S
C773        C774   1.414       .  A
C774        F775   1.358       .  S
C779        C780   1.410       .  A
C779        C784   1.408       .  A
C779        F786   1.357       .  S
C780        C781   1.411       .  A
C781        C782   1.401       .  A
C781        F788   1.358       .  S
C782        C783   1.414       .  A
C782        F787   1.359       .  S
C783        C784   1.411       .  A
C784        F785   1.357       .  S
C789        C790   1.406       .  A
C789        C794   1.402       .  A
C789        F796   1.358       .  S
C790        C791   1.410       .  A
C791        C792   1.403       .  A
C791        F798   1.358   1_655  S
C792        C793   1.410       .  A
C792        F797   1.357       .  S
C793        C794   1.414       .  A
C794        F795   1.358       .  S
C799        C800   1.401       .  A
C799        C804   1.393       .  A
C799        F806   1.357       .  S
C800        C801   1.408       .  A
C801        C802   1.404       .  A
C801        F808   1.358       .  S
C802        C803   1.406       .  A
C802        F807   1.358       .  S
C803        C804   1.407       .  A
C804        F805   1.357       .  S
C809        C810   1.413       .  A
C809        C814   1.413       .  A
C809        F816   1.358       .  S
C810        C811   1.406       .  A
C811        C812   1.403       .  A
C811        F818   1.358       .  S
C812        C813   1.416       .  A
C812        F817   1.358       .  S
C813        C814   1.413       .  A
C814        F815   1.357       .  S
C819        C820   1.409       .  A
C819        C824   1.403       .  A
C819        F826   1.357       .  S
C820        C821   1.415       .  A
C821        C822   1.415       .  A
C821        F828   1.358       .  S
C822        C823   1.413       .  A
C822        F827   1.357       .  S
C823        C824   1.415       .  A
C824        F825   1.358       .  S
C829        C830   1.412       .  A
C829        C834   1.386       .  A
C829        F836   1.359       .  S
C830        C831   1.408       .  A
C831        C832   1.405       .  A
C831        F838   1.358       .  S
C832        C833   1.410       .  A
C832        F837   1.358       .  S
C833        C834   1.401       .  A
C834        F835   1.358       .  S
C839        C840   1.399       .  A
C839        C844   1.386       .  A
C839        F846   1.358       .  S
C840        C841   1.417       .  A
C841        C842   1.405       .  A
C841        F848   1.358       .  S
C842        C843   1.400       .  A
C842        F847   1.357       .  S
C843        C844   1.410       .  A
C844        F845   1.357       .  S
C849        C850   1.413       .  A
C849        C854   1.412       .  A
C849        F856   1.358       .  S
C850        C851   1.415       .  A
C851        C852   1.399       .  A
C851        F858   1.358       .  S
C852        C853   1.406       .  A
C852        F857   1.358       .  S
C853        C854   1.415       .  A
C854        F855   1.358       .  S
C859        C860   1.404       .  A
C859        C864   1.400       .  A
C859        F866   1.358       .  S
C860        C861   1.412       .  A
C861        C862   1.409       .  A
C861        F868   1.357       .  S
C862        C863   1.412       .  A
C862        F867   1.358       .  S
C863        C864   1.413       .  A
C864        F865   1.358       .  S
C869        C870   1.410       .  A
C869        C874   1.406       .  A
C869        F876   1.357       .  S
C870        C871   1.411       .  A
C871        C872   1.400       .  A
C871        F878   1.358       .  S
C872        C873   1.412       .  A
C872        F877   1.358       .  S
C873        C874   1.412       .  A
C874        F875   1.358       .  S
C879        C880   1.412       .  A
C879        C884   1.408       .  A
C879        F886   1.358   1_554  S
C880        C881   1.407       .  A
C881        C882   1.400       .  A
C881        F888   1.358       .  S
C882        C883   1.416       .  A
C882        F887   1.358       .  S
C883        C884   1.411       .  A
C884        F885   1.357       .  S
C889        C890   1.403   1_554  A
C889        C894   1.407       .  A
C889        F896   1.358       .  S
C890        C891   1.411       .  A
C891        C892   1.399   1_656  A
C891        F898   1.358   1_655  S
C892        C893   1.407       .  A
C892        F897   1.358       .  S
C893        C894   1.419   1_455  A
C894        F895   1.358       .  S
C899        C900   1.401       .  A
C899        C904   1.387       .  A
C899        F906   1.359       .  S
C900        C901   1.415       .  A
C901        C902   1.407       .  A
C901        F908   1.358       .  S
C902        C903   1.405       .  A
C902        F907   1.357       .  S
C903        C904   1.417       .  A
C904        F905   1.358       .  S
C909        C910   1.410       .  A
C909        C914   1.407       .  A
C909        F916   1.357   1_655  S
C910        C911   1.409       .  A
C911        C912   1.405       .  A
C911        F918   1.358       .  S
C912        C913   1.414       .  A
C912        F917   1.358       .  S
C913        C914   1.412       .  A
C914        F915   1.358       .  S
C919        C920   1.411       .  A
C919        C924   1.405       .  A
C919        F926   1.358       .  S
C920        C921   1.407       .  A
C921        C922   1.403       .  A
C921        F928   1.358       .  S
C922        C923   1.415       .  A
C922        F927   1.358       .  S
C923        C924   1.411       .  A
C924        F925   1.357       .  S
C929        C930   1.416       .  A
C929        C934   1.399       .  A
C929        F936   1.358       .  S
C930        C931   1.410       .  A
C931        C932   1.401       .  A
C931        F938   1.358       .  S
C932        C933   1.407       .  A
C932        F937   1.358   1_556  S
C933        C934   1.400       .  A
C934        F935   1.357       .  S
C939        C940   1.409       .  A
C939        C944   1.410       .  A
C939        F946   1.357       .  S
C940        C941   1.416       .  A
C941        C942   1.392       .  A
C941        F948   1.358       .  S
C942        C943   1.402       .  A
C942        F947   1.358       .  S
C943        C944   1.412       .  A
C944        F945   1.357       .  S
C949        C950   1.406       .  A
C949        C954   1.391       .  A
C949        F956   1.358       .  S
C950        C951   1.409       .  A
C951        C952   1.410       .  A
C951        F958   1.357       .  S
C952        C953   1.410       .  A
C952        F957   1.357       .  S
C953        C954   1.402       .  A
C954        F955   1.355       .  S
C959        C960   1.412       .  A
C959        C964   1.409       .  A
C959        F966   1.358       .  S
C960        C961   1.413       .  A
C961        C962   1.398       .  A
C961        F968   1.358       .  S
C962        C963   1.409       .  A
C962        F967   1.358       .  S
C963        C964   1.413       .  A
C964        F965   1.358   1_545  S
C969        C970   1.410       .  A
C969        C974   1.399       .  A
C969        F976   1.358       .  S
C970        C971   1.414       .  A
C971        C972   1.410       .  A
C971        F978   1.358       .  S
C972        C973   1.411       .  A
C972        F977   1.357       .  S
C973        C974   1.412       .  A
C974        F975   1.358       .  S
C979        C980   1.414       .  A
C979        C984   1.404       .  A
C979        F986   1.358   1_455  S
C980        C981   1.402       .  A
C981        C982   1.403       .  A
C981        F988   1.357       .  S
C982        C983   1.418       .  A
C982        F987   1.358       .  S
C983        C984   1.409       .  A
C984        F985   1.358   1_565  S
C989        C990   1.411       .  A
C989        C994   1.406       .  A
C989        F996   1.357       .  S
C990        C991   1.403       .  A
C991        C992   1.402       .  A
C991        F998   1.358       .  S
C992        C993   1.416       .  A
C992        F997   1.358       .  S
C993        C994   1.410       .  A
C994        F995   1.358       .  S
C999       C1000   1.408       .  A
C999       C1004   1.400       .  A
C999       F1006   1.358       .  S
C1000      C1001   1.413       .  A
C1001      C1002   1.410       .  A
C1001      F1008   1.358       .  S
C1002      C1003   1.412       .  A
C1002      F1007   1.357       .  S
C1003      C1004   1.415       .  A
C1004      F1005   1.358       .  S
C1009      C1010   1.405       .  A
C1009      C1014   1.409       .  A
C1009      F1016   1.357       .  S
C1010      C1011   1.417       .  A
C1011      C1012   1.383       .  A
C1011      F1018   1.358       .  S
C1012      C1013   1.400       .  A
C1012      F1017   1.359       .  S
C1013      C1014   1.417       .  A
C1014      F1015   1.358       .  S
C1019      C1020   1.415       .  A
C1019      C1024   1.401       .  A
C1019      F1026   1.358       .  S
C1020      C1021   1.410       .  A
C1021      C1022   1.410       .  A
C1021      F1028   1.358       .  S
C1022      C1023   1.414       .  A
C1022      F1027   1.358       .  S
C1023      C1024   1.408       .  A
C1024      F1025   1.358       .  S
C1029      C1030   1.407       .  A
C1029      C1034   1.401       .  A
C1029      F1036   1.357       .  S
C1030      C1031   1.419       .  A
C1031      C1032   1.410       .  A
C1031      F1038   1.358       .  S
C1032      C1033   1.406       .  A
C1032      F1037   1.358       .  S
C1033      C1034   1.412       .  A
C1034      F1035   1.358       .  S
C1039      C1040   1.415       .  A
C1039      C1044   1.407       .  A
C1039      F1046   1.358       .  S
C1040      C1041   1.415       .  A
C1041      C1042   1.415       .  A
C1041      F1048   1.357       .  S
C1042      C1043   1.414       .  A
C1042      F1047   1.358       .  S
C1043      C1044   1.412       .  A
C1044      F1045   1.358       .  S
C1049      C1050   1.415   1_554  A
C1049      C1054   1.398       .  A
C1049      F1056   1.358       .  S
C1050      C1051   1.409       .  A
C1051      C1052   1.403   1_556  A
C1051      F1058   1.358       .  S
C1052      C1053   1.412       .  A
C1052      F1057   1.358       .  S
C1053      C1054   1.403       .  A
C1054      F1055   1.358       .  S
C1059      C1060   1.403       .  A
C1059      C1064   1.400       .  A
C1059      F1066   1.358       .  S
C1060      C1061   1.409       .  A
C1061      C1062   1.405       .  A
C1061      F1068   1.358       .  S
C1062      C1063   1.410       .  A
C1062      F1067   1.357       .  S
C1063      C1064   1.417       .  A
C1064      F1065   1.358       .  S
C1069      C1070   1.399       .  A
C1069      C1074   1.392       .  A
C1069      F1076   1.356       .  S
C1070      C1071   1.413       .  A
C1071      C1072   1.410       .  A
C1071      F1078   1.358       .  S
C1072      C1073   1.409       .  A
C1072      F1077   1.358       .  S
C1073      C1074   1.414       .  A
C1074      F1075   1.359       .  S
C1079      C1080   1.402       .  A
C1079      C1084   1.388       .  A
C1079      F1086   1.357       .  S
C1080      C1081   1.407       .  A
C1081      C1082   1.404       .  A
C1081      F1088   1.358       .  S
C1082      C1083   1.407       .  A
C1082      F1087   1.358       .  S
C1083      C1084   1.401       .  A
C1084      F1085   1.353       .  S
C1089      C1090   1.413       .  A
C1089      C1094   1.399       .  A
C1089      F1096   1.358       .  S
C1090      C1091   1.413       .  A
C1091      C1092   1.414       .  A
C1091      F1098   1.357       .  S
C1092      C1093   1.414       .  A
C1092      F1097   1.357   1_554  S
C1093      C1094   1.412       .  A
C1094      F1095   1.358       .  S
C1099      C1100   1.411       .  A
C1099      C1104   1.399       .  A
C1099      F1106   1.358       .  S
C1100      C1101   1.414       .  A
C1101      C1102   1.411       .  A
C1101      F1108   1.358       .  S
C1102      C1103   1.411       .  A
C1102      F1107   1.358       .  S
C1103      C1104   1.411       .  A
C1104      F1105   1.358       .  S
C1109      C1110   1.413       .  A
C1109      C1114   1.413       .  A
C1109      F1116   1.357       .  S
C1110      C1111   1.415       .  A
C1111      C1112   1.399       .  A
C1111      F1118   1.358       .  S
C1112      C1113   1.407       .  A
C1112      F1117   1.358       .  S
C1113      C1114   1.414       .  A
C1114      F1115   1.358       .  S
C1119      C1120   1.413       .  A
C1119      C1124   1.405       .  A
C1119      F1126   1.358       .  S
C1120      C1121   1.403       .  A
C1121      C1122   1.405       .  A
C1121      F1128   1.358       .  S
C1122      C1123   1.418       .  A
C1122      F1127   1.358       .  S
C1123      C1124   1.409       .  A
C1124      F1125   1.358       .  S
C1129      C1130   1.405       .  A
C1129      C1134   1.397       .  A
C1129      F1136   1.358       .  S
C1130      C1131   1.417       .  A
C1131      C1132   1.406       .  A
C1131      F1138   1.358       .  S
C1132      C1133   1.405       .  A
C1132      F1137   1.358       .  S
C1133      C1134   1.413       .  A
C1134      F1135   1.358       .  S
C1139      C1140   1.413       .  A
C1139      C1144   1.409       .  A
C1139      F1146   1.358   1_545  S
C1140      C1141   1.409       .  A
C1141      C1142   1.403       .  A
C1141      F1148   1.358       .  S
C1142      C1143   1.414       .  A
C1142      F1147   1.358       .  S
C1143      C1144   1.412       .  A
C1144      F1145   1.357       .  S
C1149      C1150   1.408   1_545  A
C1149      C1154   1.408       .  A
C1149      F1156   1.358       .  S
C1150      C1151   1.415       .  A
C1151      C1152   1.407   1_565  A
C1151      F1158   1.358       .  S
C1152      C1153   1.408       .  A
C1152      F1157   1.358       .  S
C1153      C1154   1.416       .  A
C1154      F1155   1.358       .  S
C1159      C1160   1.411       .  A
C1159      C1164   1.407   1_565  A
C1159      F1166   1.358       .  S
C1160      C1161   1.413       .  A
C1161      C1162   1.408   1_565  A
C1161      F1168   1.358       .  S
C1162      C1163   1.410       .  A
C1162      F1167   1.357       .  S
C1163      C1164   1.414       .  A
C1164      F1165   1.358       .  S
C1169      C1170   1.409       .  A
C1169      C1174   1.407       .  A
C1169      F1176   1.357       .  S
C1170      C1171   1.402       .  A
C1171      C1172   1.395       .  A
C1171      F1178   1.356       .  S
C1172      C1173   1.412       .  A
C1172      F1177   1.359       .  S
C1173      C1174   1.407       .  A
C1174      F1175   1.357       .  S
C1179      C1180   1.411       .  A
C1179      C1184   1.398       .  A
C1179      F1186   1.358       .  S
C1180      C1181   1.413       .  A
C1181      C1182   1.412       .  A
C1181      F1188   1.357       .  S
C1182      C1183   1.413       .  A
C1182      F1187   1.358       .  S
C1183      C1184   1.411       .  A
C1184      F1185   1.358       .  S
C1189      C1190   1.408       .  A
C1189      C1194   1.409       .  A
C1189      F1196   1.358       .  S
C1190      C1191   1.411       .  A
C1191      C1192   1.410       .  A
C1191      F1198   1.356       .  S
C1192      C1193   1.412       .  A
C1192      F1197   1.358       .  S
C1193      C1194   1.415       .  A
C1194      F1195   1.358       .  S
C1199      C1200   1.404       .  A
C1199      C1204   1.402       .  A
C1199      F1206   1.358       .  S
C1200      C1201   1.415       .  A
C1201      C1202   1.408       .  A
C1201      F1208   1.358       .  S
C1202      C1203   1.408       .  A
C1202      F1207   1.358       .  S
C1203      C1204   1.418       .  A
C1204      F1205   1.358       .  S
C1209      C1210   1.410       .  A
C1209      C1214   1.398       .  A
C1209      F1216   1.358       .  S
C1210      C1211   1.401       .  A
C1211      C1212   1.402       .  A
C1211      F1218   1.358       .  S
C1212      C1213   1.419       .  A
C1212      F1217   1.358       .  S
C1213      C1214   1.406       .  A
C1214      F1215   1.358   1_455  S
C1219      C1220   1.404       .  A
C1219      C1224   1.396       .  A
C1219      F1226   1.356       .  S
C1220      C1221   1.406       .  A
C1221      C1222   1.406       .  A
C1221      F1228   1.358       .  S
C1222      C1223   1.407       .  A
C1222      F1227   1.356       .  S
C1223      C1224   1.403       .  A
C1224      F1225   1.357       .  S
C1229      C1230   1.419       .  A
C1229      C1234   1.382       .  A
C1229      F1236   1.359       .  S
C1230      C1231   1.404       .  A
C1231      C1232   1.406       .  A
C1231      F1238   1.357       .  S
C1232      C1233   1.416       .  A
C1232      F1237   1.358       .  S
C1233      C1234   1.398       .  A
C1234      F1235   1.359       .  S
C1239      C1240   1.411       .  A
C1239      C1244   1.408       .  A
C1239      F1246   1.357       .  S
C1240      C1241   1.417       .  A
C1241      C1242   1.404       .  A
C1241      F1248   1.358       .  S
C1242      C1243   1.405       .  A
C1242      F1247   1.358       .  S
C1243      C1244   1.411       .  A
C1244      F1245   1.358   1_455  S
