geometry optimzed in LAMMPS
_audit_creation_date              2020-11-30 
_audit_creation_method            'lammps2cif' 
_symmetry_space_group_name_H-M    'P1' 
_symmetry_Int_Tables_number       1 
_symmetry_cell_setting            triclinic 
loop_ 
_symmetry_equiv_pos_as_xyz 
  x,y,z 
_cell_length_a                    32.28075492801081 
_cell_length_b                    33.204788662216934 
_cell_length_c                    27.601135558412626 
_cell_angle_alpha                 89.5158332711181 
_cell_angle_beta                  92.29758191606636 
_cell_angle_gamma                 119.6754432724326 
loop_ 
_atom_site_label 
_atom_site_type_symbol 
_atom_site_fract_x 
_atom_site_fract_y 
_atom_site_fract_z 
_atom_site_charge 
C1          C  0.49488895  0.23810230  0.99747407    -0.00010
C2          C  0.00478998  0.28324204  0.48980775    -0.00010
C3          C  0.21988474  0.49486711  0.50836788    -0.00010
C4          C  0.25447631  0.48853555  0.48671693    -0.00010
C5          C  0.27589869  0.27378277  0.50423604    -0.00010
C6          C  0.23898526  0.23011827  0.49377994    -0.00010
O7          O  0.03772245  0.14439510  0.31015714    -0.80700
O8          O  0.40541633  0.38001322  0.32216931    -0.82260
O9          O  0.40439529  0.00762028  0.35538887    -0.79280
O10         O  0.04466244  0.02248809  0.40369079    -0.77660
O11         O  0.10123936  0.01648320  0.36188083    -0.79450
O12         O  0.36452773  0.00743090  0.28488182    -0.80380
O13         O  0.42916627  0.43749720  0.37974521    -0.81710
O14         O  0.49705943  0.08962240  0.36715189    -0.82000
Eu15       Eu  0.47983810  0.01178686  0.34104863     2.39200
O16         O  0.50565216  0.46279091  0.31023391    -0.89510
O17         O  0.47361609  0.05802900  0.27824562    -0.93110
C18         C  0.01647708  0.13127026  0.35045841     1.01580
C19         C  0.40425271  0.39512735  0.36466268     1.01400
C20         C  0.36909829  0.00738063  0.33194292     1.01340
C21         C  0.08541908  0.02350395  0.40072301     0.99200
H22         H  0.39186044  0.44405169  0.29256980     0.28950
O23         O  0.42327137  0.46288424  0.28023908    -1.01900
H24         H  0.07141220  0.07573332  0.33356428     0.28980
O25         O  0.05279587  0.05608945  0.30662125    -1.04440
O26         O  0.45900973  0.37349411  0.17913907    -0.81660
O27         O  0.10061225  0.13396682  0.17547413    -0.81200
O28         O  0.35841360  0.43018956  0.18035943    -0.79640
O29         O  0.06040882  0.42948263  0.31518104    -0.82980
O30         O  0.14830658  0.08641212  0.30905150    -0.80830
O31         O  0.43446558  0.08777896  0.18145088    -0.79480
O32         O  0.45442155  0.00055478  0.09305427    -0.81000
O33         O  0.09246739  0.99998347  0.14265264    -0.82930
O34         O  0.39555260  0.00219604  0.13563588    -0.79670
O35         O  0.13123420  0.00293929  0.21534036    -0.82340
O36         O  0.37281818  0.37383184  0.20965299    -0.78080
O37         O  0.01309581  0.14164354  0.19740288    -0.78110
O38         O  0.12847471  0.14151652  0.28634270    -0.77750
O39         O  0.48675378  0.37335628  0.28754201    -0.81250
O40         O  0.99274978  0.42913793  0.12179026    -0.80680
O41         O  0.07592675  0.07604072  0.11872372    -0.79000
Eu42       Eu  0.45084249  0.41458519  0.24953485     2.39770
Eu43       Eu  0.04918802  0.10263949  0.24446937     2.39570
Eu44       Eu  0.41684986  0.00933986  0.21865341     2.38400
Eu45       Eu  0.08135936  0.00784832  0.27827197     2.39880
Eu46       Eu  0.01863312  0.00407040  0.15476858     2.39790
O47         O  0.07517363  0.05301144  0.21492517    -0.93420
O48         O  0.44487855  0.46121862  0.18944035    -0.92310
C49         C  0.47544871  0.38747509  0.13665300     1.01750
C50         C  0.10322136  0.11789620  0.13410914     1.00470
C51         C  0.35060074  0.38766219  0.18049708     0.99860
C52         C  0.02477533  0.38694268  0.31433652     1.01870
C53         C  0.15451001  0.12832396  0.31096269     1.00790
C54         C  0.47235957  0.12830252  0.17502556     0.99640
C55         C  0.41380158  0.00027094  0.09615447     0.99700
C56         C  0.12708050  0.00028108  0.16847141     1.02310
H57         H  0.99250071  0.06758256  0.15785470     0.29680
O58         O  0.99326444  0.05173152  0.18677980    -1.05580
H59         H  0.03836220  0.43918698  0.20644672     0.31730
O60         O  0.02667054  0.45904557  0.21760275    -1.08140
C61         C  0.27746446  0.33320054  0.06169708    -0.26890
C62         C  0.28695029  0.29665017  0.05412528    -0.14960
C63         C  0.30847782  0.28479928  0.09321741     0.35670
C64         C  0.32519128  0.31316879  0.13509702    -0.26340
C65         C  0.32022078  0.35296450  0.14085286    -0.15580
C66         C  0.29249190  0.36046251  0.10464834     0.36750
N67         N  0.27726928  0.39385070  0.11100811    -0.89830
H68         H  0.25730612  0.33993288  0.03390747     0.17870
H69         H  0.34436384  0.30460359  0.16259594     0.17860
N70         N  0.31585028  0.24555186  0.09153204    -0.88810
H71         H  0.30686487  0.42697411  0.11394900     0.35240
H72         H  0.25902424  0.38654136  0.14321184     0.40330
H73         H  0.30235006  0.22698785  0.05915703     0.39950
H74         H  0.29622827  0.22301754  0.11895047     0.34840
C75         C  0.18509823  0.22168497  0.06065374    -0.26890
C76         C  0.20685346  0.20255537  0.03279725    -0.14960
C77         C  0.19521912  0.15623534  0.03976274     0.35670
C78         C  0.16074438  0.12945415  0.07273509    -0.26340
C79         C  0.14007455  0.14883507  0.10140377    -0.15580
C80         C  0.15312010  0.19585065  0.09621055     0.36750
N81         N  0.13189515  0.21640657  0.12468923    -0.89830
H82         H  0.19165462  0.25634394  0.05341999     0.17870
H83         H  0.15028863  0.09315024  0.07650258     0.17860
N84         N  0.21821909  0.13641831  0.51321868    -0.88860
H85         H  0.14244544  0.25008983  0.11316754     0.35240
H86         H  0.14564358  0.21974737  0.16027504     0.40330
H87         H  0.25460436  0.15466049  0.52283543     0.39950
H88         H  0.20626076  0.10237219  0.52421163     0.34840
C89         C  0.38639944  0.34259409  0.43375209    -0.26890
C90         C  0.37022123  0.36195416  0.39794893    -0.14960
C91         C  0.32197068  0.35064304  0.39505215     0.35670
C92         C  0.29090936  0.32085644  0.42955229    -0.26340
C93         C  0.30752785  0.30197472  0.46583351    -0.15580
C94         C  0.35513036  0.31174635  0.46718585     0.36750
N95         N  0.37106223  0.28970405  0.00225912    -0.89830
H96         H  0.42322128  0.35120853  0.43514108     0.17870
H97         H  0.25409619  0.31304038  0.42878351     0.17860
N98         N  0.30504896  0.36985684  0.35753144    -0.88860
H99         H  0.40700534  0.30066224  0.99861110     0.35240
H100        H  0.35294795  0.25427273  0.99385136     0.40330
H101        H  0.32220386  0.40569650  0.36334968     0.39950
H102        H  0.26852923  0.35765680  0.36029949     0.34840
C103        C  0.16097617  0.17892133  0.37868571    -0.26890
C104        C  0.18431665  0.16077919  0.35214553    -0.14960
C105        C  0.23071636  0.17108548  0.36940765     0.35670
C106        C  0.24976770  0.19534487  0.41457011    -0.26340
C107        C  0.22376254  0.21017891  0.44245890    -0.15580
C108        C  0.17978156  0.20288403  0.42249326     0.36750
N109        N  0.15246256  0.21890955  0.44672745    -0.89830
H110        H  0.12574185  0.17198965  0.36659876     0.17870
H111        H  0.28437713  0.20162780  0.42833994     0.17860
N112        N  0.25991594  0.15934672  0.34152886    -0.88860
H113        H  0.13775619  0.19846912  0.47697804     0.35240
H114        H  0.17449362  0.25366846  0.45686468     0.40330
H115        H  0.24219186  0.14254712  0.30911645     0.39950
H116        H  0.26652676  0.13623016  0.36152508     0.34840
C117        C  0.32558678  0.02671704  0.04112285    -0.26890
C118        C  0.29309906  0.48588555  0.01687412    -0.14960
C119        C  0.30740011  0.45213412  0.00931767     0.35670
C120        C  0.35125130  0.45866438  0.03001118    -0.26340
C121        C  0.38352038  0.00028287  0.05420879    -0.15580
C122        C  0.37099882  0.03529748  0.05577408     0.36750
N123        N  0.40373732  0.07957918  0.07585787    -0.89830
H124        H  0.31762827  0.05462900  0.04447621     0.17870
H125        H  0.35896200  0.43042272  0.02913895     0.17860
N126        N  0.27773001  0.41043221  0.98224723    -0.88860
H127        H  0.38663542  0.08571214  0.10388598     0.35240
H128        H  0.40978901  0.10401734  0.04892308     0.40330
H129        H  0.24299284  0.39576687  0.99433084     0.39950
H130        H  0.27781086  0.41849020  0.94572566     0.34840
C131        C  0.15525869  0.45472111  0.12266013    -0.26890
C132        C  0.16455780  0.99782336  0.14132616    -0.14960
C133        C  0.20504358  0.03848853  0.12584890     0.35670
C134        C  0.22951686  0.03580132  0.08618542    -0.26340
C135        C  0.21532000  0.49336807  0.06237449    -0.15580
C136        C  0.18141697  0.45207621  0.08411874     0.36750
N137        N  0.16835466  0.40821113  0.06186876    -0.89830
H138        H  0.12494433  0.42335958  0.13524721     0.17870
H139        H  0.25604963  0.06779208  0.07035328     0.17860
N140        N  0.22113361  0.08311375  0.14807671    -0.88860
H141        H  0.14119871  0.38117943  0.08068702     0.35240
H142        H  0.19808429  0.40357876  0.06530121     0.40330
H143        H  0.19946482  0.08125185  0.17605673     0.39950
H144        H  0.21943821  0.10515244  0.12191248     0.34840
C145        C  0.31599981  0.54100065  0.43275560    -0.26890
C146        C  0.27035600  0.50217185  0.43562615    -0.14960
C147        C  0.25328034  0.47049840  0.39611708     0.35670
C148        C  0.28436959  0.97616308  0.35822090    -0.26340
C149        C  0.33339007  0.00878634  0.36333510    -0.15580
C150        C  0.34930742  0.53915649  0.40394936     0.36750
N151        N  0.39861832  0.56301911  0.42050285    -0.89830
H152        H  0.32894869  0.56726156  0.46102676     0.17870
H153        H  0.27173633  0.95174185  0.32806676     0.17860
N154        N  0.20593544  0.43159432  0.39574316    -0.88860
H155        H  0.40620544  0.53823217  0.43542993     0.35240
H156        H  0.40408419  0.08545666  0.44944450     0.40330
H157        H  0.20242973  0.41193576  0.42660761     0.39950
H158        H  0.20118646  0.41012844  0.36613297     0.34840
C159        C  0.13812069  0.48846622  0.49892251    -0.26890
C160        C  0.18565332  0.50786120  0.48277292    -0.14960
C161        C  0.20115885  0.54609475  0.45157572     0.35670
C162        C  0.16807729  0.55747702  0.43081641    -0.26340
C163        C  0.11965456  0.53344415  0.44221525    -0.15580
C164        C  0.10691461  0.50407712  0.48192774     0.36750
N165        N  0.06557597  0.49395666  0.00852010    -0.89830
H166        H  0.12506749  0.46228026  0.02636691     0.17870
H167        H  0.17950604  0.08275494  0.40229599     0.17860
N168        N  0.25034923  0.57480003  0.44183597    -0.88860
H169        H  0.04090419  0.45899508  0.00478867     0.35240
H170        H  0.04917428  0.51218608  0.49459786     0.40330
H171        H  0.26098833  0.60896115  0.45168266     0.39950
H172        H  0.25369243  0.07362424  0.40446063     0.34840
C173        C  0.47929249  0.36815499  0.05307521    -0.26890
C174        C  0.47948626  0.35657276  0.10185889    -0.14960
C175        C  0.99859271  0.32789511  0.11543385     0.35670
C176        C  0.01209845  0.30778885  0.07890485    -0.26340
C177        C  0.50596155  0.31514970  0.02929853    -0.15580
C178        C  0.49785625  0.35254050  0.01846511     0.36750
N179        N  0.51775573  0.38255607  0.47822384    -0.89830
H180        H  0.46995508  0.39426246  0.04233585     0.17870
H181        H  0.02850293  0.28746934  0.08968912     0.17860
N182        N  0.00566274  0.32049802  0.16576292    -0.88860
H183        H  0.49772834  0.36992250  0.44618407     0.35240
H184        H  0.55364741  0.39219832  0.47546516     0.40330
H185        H  0.03182514  0.35221213  0.18082225     0.39950
H186        H  0.01917387  0.29772914  0.16934459     0.34840
C187        C  0.51507662  0.19237880  0.05630356    -0.26890
C188        C  0.48661722  0.21242138  0.04564031    -0.14960
C189        C  0.44968321  0.20295389  0.07812050     0.35670
C190        C  0.44568125  0.17780334  0.12190765    -0.26340
C191        C  0.47492048  0.15770701  0.13145477    -0.15580
C192        C  0.50741983  0.16309716  0.09566904     0.36750
N193        N  0.52892882  0.13436537  0.09608546    -0.89830
H194        H  0.54188455  0.19657533  0.03162869     0.17870
H195        H  0.41845779  0.17223797  0.14700279     0.17860
N196        N  0.91552543  0.21744578  0.06623556    -0.88860
H197        H  0.55291974  0.14343369  0.06827566     0.35240
H198        H  0.50170436  0.10096908  0.08669461     0.40330
H199        H  0.91555359  0.23777878  0.09494772     0.39950
H200        H  0.88177974  0.18783821  0.06366523     0.34840
C201        C  0.47676751  0.31764152  0.36513750    -0.26890
C202        C  0.02245428  0.35179999  0.35075564    -0.14960
C203        C  0.06247397  0.35485367  0.37680097     0.35670
C204        C  0.05617855  0.33077324  0.42078942    -0.26340
C205        C  0.01043043  0.30076288  0.43800939    -0.15580
C206        C  0.47025471  0.29229162  0.40811354     0.36750
N207        N  0.42294901  0.26373631  0.42496649    -0.89830
H208        H  0.44523077  0.31350944  0.34533464     0.17870
H209        H  0.08745337  0.33803706  0.44309920     0.17860
N210        N  0.10965871  0.38092789  0.35931624    -0.88860
H211        H  0.39751274  0.26467979  0.40104657     0.35240
H212        H  0.41547823  0.22955937  0.42466256     0.40330
H213        H  0.10928464  0.39355528  0.32467781     0.39950
H214        H  0.12162962  0.35721330  0.35458439     0.34840
C215        C  0.05228113  0.20101866  0.40365702    -0.26890
C216        C  0.01217102  0.16550819  0.37958399    -0.14960
C217        C  0.46688112  0.15940985  0.38801416     0.35670
C218        C  0.46107789  0.18064540  0.42883134    -0.26340
C219        C  0.00102815  0.21397606  0.45555177    -0.15580
C220        C  0.04712181  0.22608859  0.44118303     0.36750
N221        N  0.08826597  0.26253356  0.46621091    -0.89830
H222        H  0.08715827  0.20913483  0.39292874     0.17870
H223        H  0.42558768  0.17116160  0.43958508     0.17860
N224        N  0.42750489  0.13239027  0.35452703    -0.88860
H225        H  0.11233901  0.28365603  0.44055487     0.35240
H226        H  0.10464968  0.24800382  0.48759468     0.40330
H227        H  0.43606491  0.14851609  0.32084543     0.39950
H228        H  0.39706995  0.13313628  0.36487301     0.34840
C229        C  0.49488161  0.23809783  0.49747404    -0.00010
C230        C  0.00479674  0.28324621  0.98980783    -0.00010
C231        C  0.21988190  0.49486644  0.00836600    -0.00010
C232        C  0.25447213  0.48853271  0.98671497    -0.00010
C233        C  0.27590174  0.27377717  0.00423754    -0.00010
C234        C  0.23898745  0.23011229  0.99378372    -0.00010
O235        O  0.03772492  0.14439727  0.81015567    -0.80700
O236        O  0.40540512  0.38001198  0.82216301    -0.82260
O237        O  0.40438432  0.00761565  0.85538206    -0.79280
O238        O  0.04464954  0.02248140  0.90369038    -0.77660
O239        O  0.10122038  0.01646588  0.86188085    -0.79450
O240        O  0.36452067  0.00743020  0.78487363    -0.80380
O241        O  0.42915576  0.43749525  0.87973983    -0.81710
O242        O  0.49705677  0.08962397  0.86714827    -0.82000
Eu243      Eu  0.47982975  0.01178579  0.84104526     2.39200
O244        O  0.50564285  0.46278888  0.81023046    -0.89510
O245        O  0.47361255  0.05803049  0.77824228    -0.93110
C246        C  0.01647863  0.13127275  0.85045638     1.01580
C247        C  0.40424180  0.39512559  0.86465676     1.01400
C248        C  0.36908809  0.00737646  0.83193481     1.01340
C249        C  0.08540271  0.02349022  0.90072295     0.99200
H250        H  0.39185380  0.44405311  0.79256253     0.28950
O251        O  0.42326519  0.46288554  0.78023347    -1.01900
H252        H  0.07140416  0.07572734  0.83356188     0.28980
O253        O  0.05278810  0.05608558  0.80661787    -1.04440
O254        O  0.45900221  0.37349431  0.67913463    -0.81660
O255        O  0.10060979  0.13397248  0.67547205    -0.81200
O256        O  0.35840700  0.43019552  0.68035481    -0.79640
O257        O  0.06040182  0.42947814  0.81517545    -0.82980
O258        O  0.14829961  0.08640407  0.80905192    -0.80830
O259        O  0.43446056  0.08778255  0.68145351    -0.79480
O260        O  0.45442430  0.00055606  0.59304772    -0.81000
O261        O  0.09246363  0.99998168  0.64264999    -0.82930
O262        O  0.39555466  0.00219507  0.63562968    -0.79670
O263        O  0.13122599  0.00293256  0.71533906    -0.82340
O264        O  0.37281004  0.37383672  0.70964815    -0.78080
O265        O  0.01309096  0.14164647  0.69740693    -0.78110
O266        O  0.12847007  0.14151115  0.78634704    -0.77750
O267        O  0.48674207  0.37335461  0.78754444    -0.81250
O268        O  0.99274715  0.42913896  0.62178709    -0.80680
O269        O  0.07592774  0.07604483  0.61872393    -0.79000
Eu270      Eu  0.45083443  0.41458483  0.74953042     2.39770
Eu271      Eu  0.04918534  0.10263974  0.74446705     2.39570
Eu272      Eu  0.41684787  0.00934350  0.71864832     2.38400
Eu273      Eu  0.08135085  0.00784365  0.77826961     2.39880
Eu274      Eu  0.01863169  0.00407254  0.65476530     2.39790
O275        O  0.07517076  0.05301101  0.71492381    -0.93420
O276        O  0.44487656  0.46122215  0.68943680    -0.92310
C277        C  0.47544347  0.38747557  0.63664936     1.01750
C278        C  0.10321968  0.11790154  0.63410749     1.00470
C279        C  0.35059275  0.38766780  0.68049294     0.99860
C280        C  0.02476644  0.38693947  0.81433426     1.01870
C281        C  0.15450391  0.12831598  0.81096608     1.00790
C282        C  0.47235456  0.12830602  0.67502963     0.99640
C283        C  0.41380409  0.00027098  0.59614828     0.99700
C284        C  0.12707440  0.00027599  0.66846992     1.02310
H285        H  0.99250731  0.06759109  0.65785828     0.29680
O286        O  0.99326274  0.05174461  0.68675852    -1.05580
H287        H  0.03835439  0.43918495  0.70644370     0.31730
O288        O  0.02666319  0.45904380  0.71759922    -1.08140
C289        C  0.27745853  0.33320654  0.56169235    -0.26890
C290        C  0.28694292  0.29665486  0.55412347    -0.14960
C291        C  0.30846618  0.28480239  0.59321812     0.35670
C292        C  0.32517711  0.31317127  0.63509790    -0.26340
C293        C  0.32021076  0.35296964  0.64085015    -0.15580
C294        C  0.29248571  0.36046968  0.60464276     0.36750
N295        N  0.27726715  0.39386143  0.61099846    -0.89830
H296        H  0.25730274  0.33993973  0.53390064     0.17870
H297        H  0.34434588  0.30460408  0.66259931     0.17860
N298        N  0.31583755  0.24555429  0.59153519    -0.88810
H299        H  0.30686471  0.42698357  0.61393956     0.35240
H300        H  0.25902049  0.38655467  0.64320092     0.40330
H301        H  0.30234180  0.22699213  0.55915874     0.39950
H302        H  0.29621115  0.22301896  0.61895101     0.34840
C303        C  0.18508786  0.22168853  0.56064332    -0.26890
C304        C  0.20684717  0.20256037  0.53279068    -0.14960
C305        C  0.19521775  0.15624230  0.53976125     0.35670
C306        C  0.16074496  0.12946164  0.57273555    -0.26340
C307        C  0.14007065  0.14884086  0.60140009    -0.15580
C308        C  0.15310954  0.19585423  0.59620048     0.36750
N309        N  0.13187891  0.21640786  0.62467402    -0.89830
H310        H  0.19164272  0.25634673  0.55340719     0.17870
H311        H  0.15029365  0.09315920  0.57650734     0.17860
N312        N  0.21821673  0.13640993  0.01321616    -0.88860
H313        H  0.14242551  0.25008935  0.61314876     0.35240
H314        H  0.14562625  0.21975272  0.66026080     0.40330
H315        H  0.25460209  0.15464843  0.02283341     0.39950
H316        H  0.20625469  0.10236215  0.02420520     0.34840
C317        C  0.38639755  0.34259876  0.93375007    -0.26890
C318        C  0.37021322  0.36195126  0.89794444    -0.14960
C319        C  0.32196015  0.35063181  0.89504732     0.35670
C320        C  0.29090220  0.32084401  0.92954922    -0.26340
C321        C  0.30752680  0.30196947  0.96583247    -0.15580
C322        C  0.35513207  0.31174979  0.96718531     0.36750
N323        N  0.37105409  0.28969346  0.50225756    -0.89830
H324        H  0.42322160  0.35122017  0.93513981     0.17870
H325        H  0.25408685  0.31302142  0.92878034     0.17860
N326        N  0.30503260  0.36983888  0.85752498    -0.88860
H327        H  0.40699626  0.30064637  0.49861019     0.35240
H328        H  0.35293470  0.25426262  0.49384727     0.40330
H329        H  0.32218260  0.40567869  0.86334067     0.39950
H330        H  0.26851197  0.35763380  0.86029361     0.34840
C331        C  0.16096217  0.17889672  0.87870141    -0.26890
C332        C  0.18430845  0.16076678  0.85215248    -0.14960
C333        C  0.23071299  0.17108191  0.86940759     0.35670
C334        C  0.24976718  0.19534385  0.91456845    -0.26340
C335        C  0.22375933  0.21016989  0.94246387    -0.15580
C336        C  0.17976977  0.20286110  0.92250766     0.36750
N337        N  0.15244634  0.21887780  0.94674793    -0.89830
H338        H  0.12572284  0.17195534  0.86662126     0.17870
H339        H  0.28438127  0.20163485  0.92833209     0.17860
N340        N  0.25991411  0.15934906  0.84152377    -0.88860
H341        H  0.13774529  0.19843626  0.97699914     0.35240
H342        H  0.17447365  0.25363765  0.95688404     0.40330
H343        H  0.24218676  0.14254482  0.80911431     0.39950
H344        H  0.26653451  0.13623808  0.86151927     0.34840
C345        C  0.32558522  0.02671330  0.54112977    -0.26890
C346        C  0.29310002  0.48588422  0.51687621    -0.14960
C347        C  0.30740453  0.45213649  0.50931146     0.35670
C348        C  0.35125661  0.45866731  0.53000264    -0.26340
C349        C  0.38352378  0.00028443  0.55420339    -0.15580
C350        C  0.37099933  0.03529673  0.55577451     0.36750
N351        N  0.40373692  0.07957855  0.57585871    -0.89830
H352        H  0.31762470  0.05462346  0.54448785     0.17870
H353        H  0.35896979  0.43042742  0.52912551     0.17860
N354        N  0.27773710  0.41043802  0.48223463    -0.88860
H355        H  0.38663583  0.08570930  0.60388922     0.35240
H356        H  0.40978480  0.10401701  0.54892533     0.40330
H357        H  0.24299882  0.39577035  0.49431572     0.39950
H358        H  0.27781996  0.41850106  0.44571443     0.34840
C359        C  0.15525175  0.45471587  0.62265662    -0.26890
C360        C  0.16455211  0.99781751  0.64132582    -0.14960
C361        C  0.20504002  0.03848269  0.62585211     0.35670
C362        C  0.22951547  0.03579670  0.58618997    -0.26340
C363        C  0.21531866  0.49336476  0.56237614    -0.15580
C364        C  0.18141190  0.45207207  0.58411623     0.36750
N365        N  0.16834801  0.40820804  0.56186262    -0.89830
H366        H  0.12493526  0.42335424  0.63524039     0.17870
H367        H  0.25604993  0.06778817  0.57036053     0.17860
N368        N  0.22112957  0.08310725  0.64808135    -0.88860
H369        H  0.14119005  0.38117570  0.58067829     0.35240
H370        H  0.19807617  0.40357327  0.56529475     0.40330
H371        H  0.19946029  0.08124454  0.67606121     0.39950
H372        H  0.21943437  0.10514655  0.62191766     0.34840
C373        C  0.31598730  0.54099495  0.93274609    -0.26890
C374        C  0.27034680  0.50216289  0.93562211    -0.14960
C375        C  0.25327173  0.47048418  0.89611746     0.35670
C376        C  0.28435921  0.97614914  0.85821902    -0.26340
C377        C  0.33337816  0.00878007  0.86332627    -0.15580
C378        C  0.34929489  0.53915482  0.90393657     0.36750
N379        N  0.39860699  0.56302500  0.92048515    -0.89830
H380        H  0.32893543  0.56725791  0.96101508     0.17870
H381        H  0.27172675  0.95172385  0.82806856     0.17860
N382        N  0.20592910  0.43157618  0.89574938    -0.88860
H383        H  0.40620016  0.53824310  0.93541521     0.35240
H384        H  0.40407200  0.08546494  0.94942410     0.40330
H385        H  0.20242661  0.41192381  0.92661814     0.39950
H386        H  0.20118157  0.41010567  0.86614405     0.34840
C387        C  0.13811589  0.48846375  0.99892674    -0.26890
C388        C  0.18564639  0.50785628  0.98277107    -0.14960
C389        C  0.20114648  0.54608461  0.95156696     0.35670
C390        C  0.16806215  0.55746421  0.93081001    -0.26340
C391        C  0.11964080  0.53343174  0.94221358    -0.15580
C392        C  0.10690601  0.50407006  0.98193066     0.36750
N393        N  0.06558028  0.49395904  0.50851177    -0.89830
H394        H  0.12506806  0.46227776  0.52635747     0.17870
H395        H  0.17948765  0.08273949  0.90228677     0.17860
N396        N  0.25033455  0.57478843  0.94181760    -0.88860
H397        H  0.04090181  0.45900131  0.50475688     0.35240
H398        H  0.04915811  0.51216904  0.99459530     0.40330
H399        H  0.26097497  0.60895060  0.95166121     0.39950
H400        H  0.25367072  0.07360859  0.90444113     0.34840
C401        C  0.47928629  0.36815312  0.55307210    -0.26890
C402        C  0.47948026  0.35657215  0.60185611    -0.14960
C403        C  0.99858607  0.32789416  0.61543227     0.35670
C404        C  0.01209077  0.30778609  0.57890417    -0.26340
C405        C  0.50595404  0.31514596  0.52929764    -0.15580
C406        C  0.49784972  0.35253728  0.51846301     0.36750
N407        N  0.51775828  0.38255804  0.97822412    -0.89830
H408        H  0.46995114  0.39426203  0.54233209     0.17870
H409        H  0.02849449  0.28746607  0.58968921     0.17860
N410        N  0.00565689  0.32049881  0.66576167    -0.88860
H411        H  0.49772698  0.36992353  0.94618659     0.35240
H412        H  0.55364931  0.39219956  0.97546092     0.40330
H413        H  0.03181985  0.35221333  0.68081968     0.39950
H414        H  0.01916766  0.29772970  0.66934430     0.34840
C415        C  0.51506598  0.19237024  0.55630237    -0.26890
C416        C  0.48660964  0.21241686  0.54564021    -0.14960
C417        C  0.44967740  0.20295282  0.57812147     0.35670
C418        C  0.44567690  0.17780551  0.62191047    -0.26340
C419        C  0.47491531  0.15770856  0.63145824    -0.15580
C420        C  0.50740890  0.16309038  0.59566980     0.36750
N421        N  0.52891417  0.13435490  0.59608930    -0.89830
H422        H  0.54187193  0.19656317  0.53162647     0.17870
H423        H  0.41845523  0.17224313  0.64700673     0.17860
N424        N  0.91551960  0.21744453  0.56623560    -0.88860
H425        H  0.55288803  0.14340476  0.56826542     0.35240
H426        H  0.50168327  0.10094967  0.58674031     0.40330
H427        H  0.91554873  0.23777930  0.59494645     0.39950
H428        H  0.88177373  0.18783704  0.56366730     0.34840
C429        C  0.47676297  0.31764080  0.86513986    -0.26890
C430        C  0.02244823  0.35179742  0.85075269    -0.14960
C431        C  0.06247029  0.35485137  0.87679357     0.35670
C432        C  0.05617909  0.33077367  0.92078343    -0.26340
C433        C  0.01043274  0.30076551  0.93800887    -0.15580
C434        C  0.47025429  0.29229358  0.90811721     0.36750
N435        N  0.42295053  0.26374125  0.92497608    -0.89830
H436        H  0.44522459  0.31350876  0.84534054     0.17870
H437        H  0.08745598  0.33803754  0.94308956     0.17860
N438        N  0.10965306  0.38092319  0.85930290    -0.88860
H439        H  0.39751196  0.26468163  0.90105709     0.35240
H440        H  0.41547915  0.22956415  0.92467802     0.40330
H441        H  0.10927530  0.39354845  0.82466417     0.39950
H442        H  0.12162219  0.35720741  0.85456961     0.34840
C443        C  0.05228714  0.20102151  0.90365635    -0.26890
C444        C  0.01217596  0.16551238  0.87958267    -0.14960
C445        C  0.46688735  0.15941778  0.88801137     0.35670
C446        C  0.46108476  0.18065234  0.92882959    -0.26340
C447        C  0.00103528  0.21398066  0.95555146    -0.15580
C448        C  0.04712872  0.22609234  0.94118232     0.36750
N449        N  0.08827339  0.26253800  0.96620888    -0.89830
H450        H  0.08716436  0.20913676  0.89292826     0.17870
H451        H  0.42559477  0.17116954  0.93958282     0.17860
N452        N  0.42751200  0.13240363  0.85452121    -0.88860
H453        H  0.11234650  0.28365909  0.94055218     0.35240
H454        H  0.10465683  0.24800887  0.98759394     0.40330
H455        H  0.43607533  0.14853243  0.82084130     0.39950
H456        H  0.39707803  0.13315172  0.86486678     0.34840
C457        C  0.49488877  0.73810222  0.99747406    -0.00010
C458        C  0.00479011  0.78324210  0.48980775    -0.00010
C459        C  0.21988476  0.99486707  0.50836794    -0.00010
C460        C  0.25447631  0.98853551  0.48671698    -0.00010
C461        C  0.27589857  0.77378274  0.50423605    -0.00010
C462        C  0.23898513  0.73011824  0.49377999    -0.00010
O463        O  0.03772252  0.64439516  0.31015707    -0.80700
O464        O  0.40541624  0.88001317  0.32216932    -0.82260
O465        O  0.40439532  0.50762032  0.35538884    -0.79280
O466        O  0.04466243  0.52248814  0.40369074    -0.77660
O467        O  0.10123933  0.51648320  0.36188080    -0.79450
O468        O  0.36452775  0.50743092  0.28488178    -0.80380
O469        O  0.42916617  0.93749714  0.37974522    -0.81710
O470        O  0.49705948  0.58962247  0.36715183    -0.82000
Eu471      Eu  0.47983814  0.51178691  0.34104860     2.39200
O472        O  0.50565212  0.96279086  0.31023393    -0.89510
O473        O  0.47361614  0.55802904  0.27824557    -0.93110
C474        C  0.01647715  0.63127033  0.35045833     1.01580
C475        C  0.40425259  0.89512729  0.36466268     1.01400
C476        C  0.36909831  0.50738066  0.33194288     1.01340
C477        C  0.08541906  0.52350399  0.40072297     0.99200
H478        H  0.39186039  0.94405166  0.29256983     0.28950
O479        O  0.42327133  0.96288421  0.28023910    -1.01900
H480        H  0.07141215  0.57573331  0.33356420     0.28980
O481        O  0.05279584  0.55608944  0.30662117    -1.04440
O482        O  0.45900962  0.87349407  0.17913908    -0.81660
O483        O  0.10061227  0.63396683  0.17547405    -0.81200
O484        O  0.35841357  0.93018953  0.18035944    -0.79640
O485        O  0.06040888  0.92948265  0.31518104    -0.82980
O486        O  0.14830654  0.58641208  0.30905148    -0.80830
O487        O  0.43446556  0.58777897  0.18145090    -0.79480
O488        O  0.45442161  0.50055478  0.09305423    -0.81000
O489        O  0.09246739  0.49998346  0.14265262    -0.82930
O490        O  0.39555265  0.50219602  0.13563584    -0.79670
O491        O  0.13123416  0.50293924  0.21534036    -0.82340
O492        O  0.37281812  0.87383180  0.20965301    -0.78080
O493        O  0.01309577  0.64164358  0.19740290    -0.78110
O494        O  0.12847470  0.64151650  0.28634268    -0.77750
O495        O  0.48675374  0.87335625  0.28754202    -0.81250
O496        O  0.99274977  0.92913792  0.12179029    -0.80680
O497        O  0.07592678  0.57604072  0.11872366    -0.79000
Eu498      Eu  0.45084243  0.91458515  0.24953487     2.39770
Eu499      Eu  0.04918802  0.60263951  0.24446929     2.39570
Eu500      Eu  0.41684991  0.50933988  0.21865338     2.38400
Eu501      Eu  0.08135932  0.50784829  0.27827195     2.39880
Eu502      Eu  0.01863313  0.50407041  0.15476853     2.39790
O503        O  0.07517362  0.55301144  0.21492513    -0.93420
O504        O  0.44487849  0.96121858  0.18944037    -0.92310
C505        C  0.47544859  0.88747504  0.13665300     1.01750
C506        C  0.10322138  0.61789620  0.13410906     1.00470
C507        C  0.35060070  0.88766216  0.18049709     0.99860
C508        C  0.02477539  0.88694269  0.31433651     1.01870
C509        C  0.15450997  0.62832391  0.31096268     1.00790
C510        C  0.47235953  0.62830254  0.17502559     0.99640
C511        C  0.41380163  0.50027093  0.09615443     0.99700
C512        C  0.12708047  0.50028104  0.16847141     1.02310
H513        H  0.99250082  0.56758269  0.15785468     0.29680
O514        O  0.99326445  0.55173170  0.18677948    -1.05580
H515        H  0.03836223  0.93918698  0.20644675     0.31730
O516        O  0.02667057  0.95904556  0.21760278    -1.08140
C517        C  0.27746445  0.83320054  0.06169707    -0.26890
C518        C  0.28695029  0.79665017  0.05412526    -0.14960
C519        C  0.30847783  0.78479929  0.09321738     0.35670
C520        C  0.32519129  0.81316879  0.13509700    -0.26340
C521        C  0.32022077  0.85296448  0.14085285    -0.15580
C522        C  0.29249188  0.86046250  0.10464833     0.36750
N523        N  0.27726925  0.89385068  0.11100812    -0.89830
H524        H  0.25730611  0.83993289  0.03390746     0.17870
H525        H  0.34436385  0.80460360  0.16259591     0.17860
N526        N  0.31585031  0.74555189  0.09153200    -0.88810
H527        H  0.30686484  0.92697409  0.11394901     0.35240
H528        H  0.25902421  0.88654134  0.14321185     0.40330
H529        H  0.30235009  0.72698787  0.05915698     0.39950
H530        H  0.29622832  0.72301756  0.11895042     0.34840
C531        C  0.18509821  0.72168496  0.06065362    -0.26890
C532        C  0.20685347  0.70255536  0.03279717    -0.14960
C533        C  0.19521916  0.65623535  0.03976268     0.35670
C534        C  0.16074442  0.62945415  0.07273504    -0.26340
C535        C  0.14007457  0.64883506  0.10140368    -0.15580
C536        C  0.15312008  0.69585064  0.09621043     0.36750
N537        N  0.13189510  0.71640655  0.12468908    -0.89830
H538        H  0.19165459  0.75634391  0.05341986     0.17870
H539        H  0.15028869  0.59315026  0.07650255     0.17860
N540        N  0.21821899  0.63641829  0.51321871    -0.88860
H541        H  0.14244537  0.75008980  0.11316737     0.35240
H542        H  0.14564352  0.71974737  0.16027490     0.40330
H543        H  0.25460427  0.65466046  0.52283546     0.39950
H544        H  0.20626064  0.60237216  0.52421163     0.34840
C545        C  0.38639928  0.84259398  0.43375205    -0.26890
C546        C  0.37022110  0.86195410  0.39794892    -0.14960
C547        C  0.32197056  0.85064302  0.39505217     0.35670
C548        C  0.29090922  0.82085641  0.42955231    -0.26340
C549        C  0.30752771  0.80197467  0.46583350    -0.15580
C550        C  0.35513021  0.81174626  0.46718581     0.36750
N551        N  0.37106221  0.78970402  0.00225903    -0.89830
H552        H  0.42322111  0.85120838  0.43514101     0.17870
H553        H  0.25409606  0.81304036  0.42878355     0.17860
N554        N  0.30504885  0.86985687  0.35753149    -0.88860
H555        H  0.40700531  0.80066219  0.99861098     0.35240
H556        H  0.35294790  0.75427271  0.99385125     0.40330
H557        H  0.32220379  0.90569652  0.36334976     0.39950
H558        H  0.26852912  0.85765686  0.36029957     0.34840
C559        C  0.16097587  0.67892092  0.37868592    -0.26890
C560        C  0.18431652  0.66077907  0.35214561    -0.14960
C561        C  0.23071632  0.67108556  0.36940764     0.35670
C562        C  0.24976764  0.69534498  0.41457009    -0.26340
C563        C  0.22376237  0.71017881  0.44245897    -0.15580
C564        C  0.17978124  0.70288364  0.42249346     0.36750
N565        N  0.15246209  0.71890895  0.44672774    -0.89830
H566        H  0.12574145  0.67198904  0.36659906     0.17870
H567        H  0.28437716  0.70162808  0.42833984     0.17860
N568        N  0.25991597  0.65934694  0.34152880    -0.88860
H569        H  0.13775581  0.69846846  0.47697833     0.35240
H570        H  0.17449305  0.75366787  0.45686497     0.40330
H571        H  0.24219188  0.64254727  0.30911642     0.39950
H572        H  0.26652695  0.63623048  0.36152502     0.34840
C573        C  0.32558681  0.52671699  0.04112288    -0.26890
C574        C  0.29309904  0.98588560  0.01687408    -0.14960
C575        C  0.30740009  0.95213416  0.00931765     0.35670
C576        C  0.35125127  0.95866442  0.03001119    -0.26340
C577        C  0.38352042  0.50028284  0.05420875    -0.15580
C578        C  0.37099886  0.53529745  0.05577405     0.36750
N579        N  0.40373738  0.57957916  0.07585782    -0.89830
H580        H  0.31762830  0.55462895  0.04447625     0.17870
H581        H  0.35896196  0.93042276  0.02913897     0.17860
N582        N  0.27773000  0.91043225  0.98224722    -0.88860
H583        H  0.38663550  0.58571212  0.10388593     0.35240
H584        H  0.40978904  0.60401731  0.04892302     0.40330
H585        H  0.24299282  0.89576690  0.99433083     0.39950
H586        H  0.27781084  0.91849025  0.94572565     0.34840
C587        C  0.15525871  0.95472117  0.12266010    -0.26890
C588        C  0.16455778  0.49782330  0.14132618    -0.14960
C589        C  0.20504358  0.53848847  0.12584894     0.35670
C590        C  0.22951687  0.53580125  0.08618547    -0.26340
C591        C  0.21531999  0.99336814  0.06237443    -0.15580
C592        C  0.18141699  0.95207627  0.08411870     0.36750
N593        N  0.16835468  0.90821119  0.06186872    -0.89830
H594        H  0.12494437  0.92335963  0.13524719     0.17870
H595        H  0.25604966  0.56779201  0.07035334     0.17860
N596        N  0.22113361  0.58311369  0.14807675    -0.88860
H597        H  0.14119875  0.88117949  0.08068700     0.35240
H598        H  0.19808432  0.90357883  0.06530117     0.40330
H599        H  0.19946482  0.58125179  0.17605676     0.39950
H600        H  0.21943820  0.60515238  0.12191251     0.34840
C601        C  0.31599980  0.04100062  0.43275564    -0.26890
C602        C  0.27035600  0.00217181  0.43562620    -0.14960
C603        C  0.25328033  0.97049835  0.39611714     0.35670
C604        C  0.28436960  0.47616312  0.35822085    -0.26340
C605        C  0.33339009  0.50878637  0.36333506    -0.15580
C606        C  0.34930740  0.03915646  0.40394939     0.36750
N607        N  0.39861832  0.06301909  0.42050287    -0.89830
H608        H  0.32894869  0.06726153  0.46102679     0.17870
H609        H  0.27173634  0.45174190  0.32806670     0.17860
N610        N  0.20593544  0.93159426  0.39574323    -0.88860
H611        H  0.40620544  0.03823216  0.43542996     0.35240
H612        H  0.40408419  0.58545667  0.44944448     0.40330
H613        H  0.20242974  0.91193573  0.42660770     0.39950
H614        H  0.20118648  0.91012836  0.36613307     0.34840
C615        C  0.13812071  0.98846620  0.49892259    -0.26890
C616        C  0.18565333  0.00786117  0.48277299    -0.14960
C617        C  0.20115887  0.04609471  0.45157578     0.35670
C618        C  0.16807731  0.05747698  0.43081645    -0.26340
C619        C  0.11965458  0.03344411  0.44221529    -0.15580
C620        C  0.10691463  0.00407710  0.48192779     0.36750
N621        N  0.06557595  0.99395669  0.00852006    -0.89830
H622        H  0.12506749  0.96228030  0.02636685     0.17870
H623        H  0.17950602  0.58275499  0.40229595     0.17860
N624        N  0.25034925  0.07479999  0.44183604    -0.88860
H625        H  0.04090415  0.95899513  0.00478854     0.35240
H626        H  0.04917428  0.01218604  0.49459788     0.40330
H627        H  0.26098834  0.10896111  0.45168269     0.39950
H628        H  0.25369241  0.57362433  0.40446055     0.34840
C629        C  0.47929238  0.86815496  0.05307520    -0.26890
C630        C  0.47948611  0.85657270  0.10185888    -0.14960
C631        C  0.99859265  0.82789506  0.11543386     0.35670
C632        C  0.01209839  0.80778879  0.07890486    -0.26340
C633        C  0.50596138  0.81514962  0.02929852    -0.15580
C634        C  0.49785614  0.85254046  0.01846511     0.36750
N635        N  0.51775552  0.88255599  0.47822379    -0.89830
H636        H  0.46995503  0.89426247  0.04233585     0.17870
H637        H  0.02850284  0.78746926  0.08968914     0.17860
N638        N  0.00566259  0.82049790  0.16576292    -0.88860
H639        H  0.49772813  0.86992237  0.44618403     0.35240
H640        H  0.55364721  0.89219831  0.47546509     0.40330
H641        H  0.03182501  0.85221198  0.18082230     0.39950
H642        H  0.01917367  0.79772897  0.16934460     0.34840
C643        C  0.51507654  0.69237881  0.05630360    -0.26890
C644        C  0.48661707  0.71242132  0.04564031    -0.14960
C645        C  0.44968304  0.70295379  0.07812049     0.35670
C646        C  0.44568113  0.67780327  0.12190766    -0.26340
C647        C  0.47492043  0.65770703  0.13145481    -0.15580
C648        C  0.50741980  0.66309722  0.09566910     0.36750
N649        N  0.52892889  0.63436551  0.09608558    -0.89830
H650        H  0.54188449  0.69657539  0.03162874     0.17870
H651        H  0.41845764  0.67223786  0.14700279     0.17860
N652        N  0.91552536  0.71744574  0.06623551    -0.88860
H653        H  0.55291977  0.64343381  0.06827574     0.35240
H654        H  0.50170447  0.60096915  0.08669488     0.40330
H655        H  0.91555351  0.73777875  0.09494766     0.39950
H656        H  0.88177966  0.68783816  0.06366519     0.34840
C657        C  0.47676750  0.81764145  0.36513745    -0.26890
C658        C  0.02245435  0.85180001  0.35075563    -0.14960
C659        C  0.06247406  0.85485370  0.37680094     0.35670
C660        C  0.05617866  0.83077330  0.42078940    -0.26340
C661        C  0.01043055  0.80076293  0.43800938    -0.15580
C662        C  0.47025470  0.79229157  0.40811351     0.36750
N663        N  0.42294900  0.76373625  0.42496644    -0.89830
H664        H  0.44523076  0.81350934  0.34533456     0.17870
H665        H  0.08745349  0.83803713  0.44309917     0.17860
N666        N  0.10965878  0.88092791  0.35931618    -0.88860
H667        H  0.39751273  0.76467972  0.40104652     0.35240
H668        H  0.41547823  0.72955932  0.42466252     0.40330
H669        H  0.10928469  0.89355529  0.32467775     0.39950
H670        H  0.12162968  0.85721330  0.35458431     0.34840
C671        C  0.05228123  0.70101877  0.40365691    -0.26890
C672        C  0.01217111  0.66550828  0.37958392    -0.14960
C673        C  0.46688117  0.65940989  0.38801415     0.35670
C674        C  0.46107793  0.68064541  0.42883134    -0.26340
C675        C  0.00102826  0.71397611  0.45555176    -0.15580
C676        C  0.04712192  0.72608868  0.44118296     0.36750
N677        N  0.08826608  0.76253366  0.46621083    -0.89830
H678        H  0.08715838  0.70913500  0.39292856     0.17870
H679        H  0.42558772  0.67116158  0.43958510     0.17860
N680        N  0.42750494  0.63239030  0.35452701    -0.88860
H681        H  0.11233917  0.78365607  0.44055480     0.35240
H682        H  0.10464973  0.74800392  0.48759471     0.40330
H683        H  0.43606495  0.64851613  0.32084542     0.39950
H684        H  0.39707000  0.63313630  0.36487301     0.34840
C685        C  0.49488162  0.73809784  0.49747404    -0.00010
C686        C  0.00479670  0.78324618  0.98980783    -0.00010
C687        C  0.21988189  0.99486649  0.00836594    -0.00010
C688        C  0.25447212  0.98853275  0.98671492    -0.00010
C689        C  0.27590176  0.77377720  0.00423750    -0.00010
C690        C  0.23898750  0.73011230  0.99378366    -0.00010
O691        O  0.03772483  0.64439719  0.81015571    -0.80700
O692        O  0.40540510  0.88001202  0.82216298    -0.82260
O693        O  0.40438432  0.50761560  0.85538212    -0.79280
O694        O  0.04464953  0.52248133  0.90369041    -0.77660
O695        O  0.10122040  0.51646585  0.86188086    -0.79450
O696        O  0.36452066  0.50743015  0.78487369    -0.80380
O697        O  0.42915574  0.93749530  0.87973979    -0.81710
O698        O  0.49705672  0.58962390  0.86714834    -0.82000
Eu699      Eu  0.47982976  0.51178576  0.84104530     2.39200
O700        O  0.50564282  0.96278888  0.81023046    -0.89510
O701        O  0.47361253  0.55803045  0.77824234    -0.93110
C702        C  0.01647855  0.63127267  0.85045643     1.01580
C703        C  0.40424179  0.89512563  0.86465673     1.01400
C704        C  0.36908809  0.50737641  0.83193488     1.01340
C705        C  0.08540271  0.52349017  0.90072297     0.99200
H706        H  0.39185380  0.94405316  0.79256248     0.28950
O707        O  0.42326519  0.96288558  0.78023342    -1.01900
H708        H  0.07140416  0.57572731  0.83356193     0.28980
O709        O  0.05278809  0.55608555  0.80661793    -1.04440
O710        O  0.45900218  0.87349432  0.67913461    -0.81660
O711        O  0.10060973  0.63397243  0.67547212    -0.81200
O712        O  0.35840699  0.93019557  0.68035477    -0.79640
O713        O  0.06040182  0.92947816  0.81517545    -0.82980
O714        O  0.14829960  0.58640407  0.80905193    -0.80830
O715        O  0.43446057  0.58778251  0.68145351    -0.79480
O716        O  0.45442427  0.50055608  0.59304777    -0.81000
O717        O  0.09246357  0.49998165  0.64264998    -0.82930
O718        O  0.39555463  0.50219509  0.63562974    -0.79670
O719        O  0.13122597  0.50293256  0.71533904    -0.82340
O720        O  0.37281003  0.87383676  0.70964812    -0.78080
O721        O  0.01309098  0.64164643  0.69740691    -0.78110
O722        O  0.12847004  0.64151113  0.78634704    -0.77750
O723        O  0.48674202  0.87335459  0.78754443    -0.81250
O724        O  0.99274723  0.92913901  0.62178706    -0.80680
O725        O  0.07592767  0.57604480  0.61872398    -0.79000
Eu726      Eu  0.45083441  0.91458484  0.74953040     2.39770
Eu727      Eu  0.04918529  0.60263969  0.74446711     2.39570
Eu728      Eu  0.41684784  0.50934345  0.71864838     2.38400
Eu729      Eu  0.08135084  0.50784363  0.77826963     2.39880
Eu730      Eu  0.01863163  0.50407249  0.65476533     2.39790
O731        O  0.07517072  0.55301098  0.71492383    -0.93420
O732        O  0.44487658  0.96122219  0.68943677    -0.92310
C733        C  0.47544345  0.88747556  0.63664934     1.01750
C734        C  0.10321961  0.61790150  0.63410755     1.00470
C735        C  0.35059274  0.88766784  0.68049291     0.99860
C736        C  0.02476644  0.88693949  0.81433426     1.01870
C737        C  0.15450389  0.62831598  0.81096608     1.00790
C738        C  0.47235457  0.62830598  0.67502961     0.99640
C739        C  0.41380406  0.50027101  0.59614834     0.99700
C740        C  0.12707436  0.50027597  0.66846990     1.02310
H741        H  0.99250724  0.56759102  0.65785827     0.29680
O742        O  0.99326270  0.55174451  0.68675868    -1.05580
H743        H  0.03835443  0.93918499  0.70644368     0.31730
O744        O  0.02666323  0.95904384  0.71759919    -1.08140
C745        C  0.27745844  0.83320653  0.56169236    -0.26890
C746        C  0.28694284  0.79665486  0.55412348    -0.14960
C747        C  0.30846613  0.78480241  0.59321811     0.35670
C748        C  0.32517708  0.81317130  0.63509789    -0.26340
C749        C  0.32021073  0.85296967  0.64085014    -0.15580
C750        C  0.29248565  0.86046969  0.60464276     0.36750
N751        N  0.27726710  0.89386145  0.61099846    -0.89830
H752        H  0.25730261  0.83993969  0.53390067     0.17870
H753        H  0.34434586  0.80460412  0.66259928     0.17860
N754        N  0.31583748  0.74555430  0.59153519    -0.88810
H755        H  0.30686466  0.92698358  0.61393954     0.35240
H756        H  0.25902046  0.88655471  0.64320094     0.40330
H757        H  0.30234171  0.72699212  0.55915876     0.39950
H758        H  0.29621111  0.72301899  0.61895103     0.34840
C759        C  0.18508781  0.72168852  0.56064343    -0.26890
C760        C  0.20684710  0.70256036  0.53279077    -0.14960
C761        C  0.19521768  0.65624228  0.53976131     0.35670
C762        C  0.16074489  0.62946162  0.57273560    -0.26340
C763        C  0.14007058  0.64884082  0.60140016    -0.15580
C764        C  0.15310947  0.69585420  0.59620058     0.36750
N765        N  0.13187883  0.71640782  0.62467411    -0.89830
H766        H  0.19164265  0.75634672  0.55340730     0.17870
H767        H  0.15029356  0.59315917  0.57650738     0.17860
N768        N  0.21821681  0.63640995  0.01321613    -0.88860
H769        H  0.14242543  0.75008931  0.61314886     0.35240
H770        H  0.14562616  0.71975267  0.66026089     0.40330
H771        H  0.25460216  0.65464848  0.02283340     0.39950
H772        H  0.20625478  0.60236218  0.02420520     0.34840
C773        C  0.38639753  0.84259877  0.93375000    -0.26890
C774        C  0.37021322  0.86195131  0.89794442    -0.14960
C775        C  0.32196016  0.85063189  0.89504733     0.35670
C776        C  0.29090222  0.82084410  0.92954924    -0.26340
C777        C  0.30752681  0.80196952  0.96583245    -0.15580
C778        C  0.35513206  0.81174980  0.96718525     0.36750
N779        N  0.37105393  0.78969334  0.50225749    -0.89830
H780        H  0.42322158  0.85122015  0.93513972     0.17870
H781        H  0.25408688  0.81302154  0.92878039     0.17860
N782        N  0.30503261  0.86983899  0.85752502    -0.88860
H783        H  0.40699610  0.80064623  0.49861012     0.35240
H784        H  0.35293452  0.75426250  0.49384720     0.40330
H785        H  0.32218263  0.90567880  0.86334072     0.39950
H786        H  0.26851199  0.85763394  0.86029367     0.34840
C787        C  0.16096235  0.67889698  0.87870124    -0.26890
C788        C  0.18430850  0.66076684  0.85215242    -0.14960
C789        C  0.23071298  0.67108183  0.86940759     0.35670
C790        C  0.24976718  0.69534375  0.91456846    -0.26340
C791        C  0.22375941  0.71016995  0.94246380    -0.15580
C792        C  0.17976997  0.70286136  0.92250750     0.36750
N793        N  0.15244662  0.71887821  0.94674770    -0.89830
H794        H  0.12572308  0.67195575  0.86662103     0.17870
H795        H  0.28438121  0.70163463  0.92833216     0.17860
N796        N  0.25991404  0.65934887  0.84152381    -0.88860
H797        H  0.13774551  0.69843670  0.97699891     0.35240
H798        H  0.17447400  0.75363805  0.95688382     0.40330
H799        H  0.24218670  0.64254467  0.80911433     0.39950
H800        H  0.26653433  0.63623782  0.86151932     0.34840
C801        C  0.32558519  0.52671333  0.54112977    -0.26890
C802        C  0.29310003  0.98588418  0.51687625    -0.14960
C803        C  0.30740453  0.95213645  0.50931148     0.35670
C804        C  0.35125662  0.95866726  0.53000263    -0.26340
C805        C  0.38352374  0.50028446  0.55420345    -0.15580
C806        C  0.37099928  0.53529675  0.55577457     0.36750
N807        N  0.40373684  0.57957856  0.57585881    -0.89830
H808        H  0.31762466  0.55462349  0.54448783     0.17870
H809        H  0.35896979  0.93042737  0.52912549     0.17860
N810        N  0.27773709  0.91043797  0.48223466    -0.88860
H811        H  0.38663572  0.58570929  0.60388930     0.35240
H812        H  0.40978474  0.60401703  0.54892544     0.40330
H813        H  0.24299881  0.89577032  0.49431575     0.39950
H814        H  0.27781995  0.91850100  0.44571446     0.34840
C815        C  0.15525177  0.95471586  0.62265667    -0.26890
C816        C  0.16455207  0.49781752  0.64132578    -0.14960
C817        C  0.20503997  0.53848270  0.62585207     0.35670
C818        C  0.22951543  0.53579673  0.58618991    -0.26340
C819        C  0.21531869  0.99336472  0.56237620    -0.15580
C820        C  0.18141192  0.95207204  0.58411629     0.36750
N821        N  0.16834801  0.90820800  0.56186268    -0.89830
H822        H  0.12493527  0.92335424  0.63524044     0.17870
H823        H  0.25604988  0.56778821  0.57036047     0.17860
N824        N  0.22112952  0.58310726  0.64808132    -0.88860
H825        H  0.14119004  0.88117568  0.58067835     0.35240
H826        H  0.19807616  0.90357322  0.56529480     0.40330
H827        H  0.19946023  0.58124454  0.67606117     0.39950
H828        H  0.21943433  0.60514657  0.62191763     0.34840
C829        C  0.31598729  0.04099499  0.93274604    -0.26890
C830        C  0.27034680  0.00216293  0.93562205    -0.14960
C831        C  0.25327173  0.97048423  0.89611740     0.35670
C832        C  0.28435921  0.47614910  0.85821908    -0.26340
C833        C  0.33337816  0.50878002  0.86332633    -0.15580
C834        C  0.34929488  0.03915487  0.90393651     0.36750
N835        N  0.39860698  0.06302505  0.92048510    -0.89830
H836        H  0.32893542  0.06725795  0.96101504     0.17870
H837        H  0.27172676  0.45172381  0.82806862     0.17860
N838        N  0.20592910  0.93157622  0.89574932    -0.88860
H839        H  0.40620015  0.03824315  0.93541516     0.35240
H840        H  0.40407201  0.58546489  0.94942416     0.40330
H841        H  0.20242660  0.91192385  0.92661808     0.39950
H842        H  0.20118156  0.91010571  0.86614399     0.34840
C843        C  0.13811588  0.98846379  0.99892669    -0.26890
C844        C  0.18564638  0.00785633  0.98277101    -0.14960
C845        C  0.20114647  0.04608467  0.95156691     0.35670
C846        C  0.16806215  0.05746428  0.93080999    -0.26340
C847        C  0.11964079  0.03343181  0.94221356    -0.15580
C848        C  0.10690600  0.00407011  0.98193062     0.36750
N849        N  0.06558031  0.99395903  0.50851182    -0.89830
H850        H  0.12506808  0.96227775  0.52635755     0.17870
H851        H  0.17948766  0.58273942  0.90228679     0.17860
N852        N  0.25033453  0.07478848  0.94181753    -0.88860
H853        H  0.04090185  0.95900130  0.50475699     0.35240
H854        H  0.04915813  0.01216913  0.99459531     0.40330
H855        H  0.26097496  0.10895065  0.95166117     0.39950
H856        H  0.25367075  0.57360851  0.90444121     0.34840
C857        C  0.47928613  0.86815303  0.55307208    -0.26890
C858        C  0.47948020  0.85657213  0.60185610    -0.14960
C859        C  0.99858624  0.82789425  0.61543226     0.35670
C860        C  0.01209093  0.80778618  0.57890416    -0.26340
C861        C  0.50595398  0.81514595  0.52929762    -0.15580
C862        C  0.49784957  0.85253722  0.51846298     0.36750
N863        N  0.51775820  0.88255799  0.97822413    -0.89830
H864        H  0.46995094  0.89426191  0.54233208     0.17870
H865        H  0.02849466  0.78746617  0.58968918     0.17860
N866        N  0.00565712  0.82049897  0.66576166    -0.88860
H867        H  0.49772692  0.86992348  0.94618658     0.35240
H868        H  0.55364922  0.89219951  0.97546096     0.40330
H869        H  0.03182008  0.85221352  0.68081963     0.39950
H870        H  0.01916795  0.79772990  0.66934429     0.34840
C871        C  0.51506602  0.69237029  0.55630238    -0.26890
C872        C  0.48660967  0.71241688  0.54564022    -0.14960
C873        C  0.44967742  0.70295283  0.57812149     0.35670
C874        C  0.44567692  0.67780550  0.62191048    -0.26340
C875        C  0.47491533  0.65770854  0.63145822    -0.15580
C876        C  0.50740894  0.66309041  0.59566980     0.36750
N877        N  0.52891422  0.63435494  0.59608924    -0.89830
H878        H  0.54187197  0.69656324  0.53162648     0.17870
H879        H  0.41845525  0.67224311  0.64700673     0.17860
N880        N  0.91551977  0.71744466  0.56623564    -0.88860
H881        H  0.55288824  0.64340498  0.56826549     0.35240
H882        H  0.50168335  0.60094981  0.58673981     0.40330
H883        H  0.91554893  0.73777943  0.59494650     0.39950
H884        H  0.88177389  0.68783719  0.56366731     0.34840
C885        C  0.47676288  0.81764075  0.86513983    -0.26890
C886        C  0.02244821  0.85179744  0.85075270    -0.14960
C887        C  0.06247027  0.85485135  0.87679357     0.35670
C888        C  0.05617906  0.83077363  0.92078342    -0.26340
C889        C  0.01043270  0.80076549  0.93800886    -0.15580
C890        C  0.47025416  0.79229351  0.90811717     0.36750
N891        N  0.42295038  0.76374116  0.92497599    -0.89830
H892        H  0.44522450  0.81350871  0.84534048     0.17870
H893        H  0.08745594  0.83803748  0.94308954     0.17860
N894        N  0.10965303  0.88092317  0.85930290    -0.88860
H895        H  0.39751183  0.76468157  0.90105699     0.35240
H896        H  0.41547900  0.72956406  0.92467787     0.40330
H897        H  0.10927528  0.89354844  0.82466418     0.39950
H898        H  0.12162216  0.85720739  0.85456960     0.34840
C899        C  0.05228705  0.70102141  0.90365640    -0.26890
C900        C  0.01217588  0.66551230  0.87958271    -0.14960
C901        C  0.46688724  0.65941770  0.88801137     0.35670
C902        C  0.46108462  0.68065226  0.92882958    -0.26340
C903        C  0.00103521  0.71398063  0.95555146    -0.15580
C904        C  0.04712865  0.72609227  0.94118234     0.36750
N905        N  0.08827332  0.76253792  0.96620891    -0.89830
H906        H  0.08716427  0.70913663  0.89292835     0.17870
H907        H  0.42559462  0.67116947  0.93958277     0.17860
N908        N  0.42751191  0.63240355  0.85452120    -0.88860
H909        H  0.11234642  0.78365902  0.94055221     0.35240
H910        H  0.10465677  0.74800878  0.98759393     0.40330
H911        H  0.43607525  0.64853234  0.82084129     0.39950
H912        H  0.39707793  0.63315164  0.86486673     0.34840
C913        C  0.99488899  0.23810229  0.99747407    -0.00010
C914        C  0.50478998  0.28324207  0.48980776    -0.00010
C915        C  0.71988475  0.49486710  0.50836787    -0.00010
C916        C  0.75447631  0.48853554  0.48671692    -0.00010
C917        C  0.77589864  0.27378276  0.50423602    -0.00010
C918        C  0.73898522  0.23011826  0.49377991    -0.00010
O919        O  0.53772242  0.14439512  0.31015714    -0.80700
O920        O  0.90541627  0.38001318  0.32216928    -0.82260
O921        O  0.90439529  0.00762023  0.35538884    -0.79280
O922        O  0.54466247  0.02248812  0.40369078    -0.77660
O923        O  0.60123941  0.01648327  0.36188081    -0.79450
O924        O  0.86452774  0.00743088  0.28488179    -0.80380
O925        O  0.92916621  0.43749716  0.37974517    -0.81710
O926        O  0.99705944  0.08962238  0.36715188    -0.82000
Eu927      Eu  0.97983810  0.01178683  0.34104862     2.39200
O928        O  0.00565210  0.46279084  0.31023390    -0.89510
O929        O  0.97361610  0.05802898  0.27824560    -0.93110
C930        C  0.51647706  0.13127028  0.35045841     1.01580
C931        C  0.90425265  0.39512730  0.36466264     1.01400
C932        C  0.86909829  0.00738060  0.33194288     1.01340
C933        C  0.58541912  0.02350401  0.40072299     0.99200
H934        H  0.89186041  0.44405168  0.29256974     0.28950
O935        O  0.92327135  0.46288422  0.28023902    -1.01900
H936        H  0.57141219  0.07573335  0.33356427     0.28980
O937        O  0.55279586  0.05608947  0.30662124    -1.04440
O938        O  0.95900968  0.37349407  0.17913904    -0.81660
O939        O  0.60061220  0.13396685  0.17547410    -0.81200
O940        O  0.85841358  0.43018956  0.18035939    -0.79640
O941        O  0.56040887  0.42948272  0.31518108    -0.82980
O942        O  0.64830656  0.08641216  0.30905148    -0.80830
O943        O  0.93446562  0.08777895  0.18145087    -0.79480
O944        O  0.95442158  0.00055477  0.09305425    -0.81000
O945        O  0.59246735  0.99998347  0.14265262    -0.82930
O946        O  0.89555263  0.00219604  0.13563586    -0.79670
O947        O  0.63123417  0.00293929  0.21534034    -0.82340
O948        O  0.87281812  0.37383182  0.20965298    -0.78080
O949        O  0.51309577  0.14164355  0.19740288    -0.78110
O950        O  0.62847469  0.14151655  0.28634266    -0.77750
O951        O  0.98675371  0.37335622  0.28754202    -0.81250
O952        O  0.49274982  0.42913798  0.12179030    -0.80680
O953        O  0.57592670  0.07604074  0.11872371    -0.79000
Eu954      Eu  0.95084244  0.41458514  0.24953482     2.39770
Eu955      Eu  0.54918799  0.10263952  0.24446936     2.39570
Eu956      Eu  0.91684989  0.00933984  0.21865339     2.38400
Eu957      Eu  0.58135934  0.00784834  0.27827196     2.39880
Eu958      Eu  0.51863309  0.00407041  0.15476859     2.39790
O959        O  0.57517361  0.05301147  0.21492516    -0.93420
O960        O  0.94487854  0.46121860  0.18944032    -0.92310
C961        C  0.97544867  0.38747504  0.13665297     1.01750
C962        C  0.60322130  0.11789622  0.13410911     1.00470
C963        C  0.85060070  0.38766218  0.18049706     0.99860
C964        C  0.52477538  0.38694275  0.31433654     1.01870
C965        C  0.65450999  0.12832399  0.31096265     1.00790
C966        C  0.97235961  0.12830251  0.17502556     0.99640
C967        C  0.91380162  0.00027095  0.09615445     0.99700
C968        C  0.62708046  0.00028108  0.16847139     1.02310
H969        H  0.49250067  0.06758257  0.15785471     0.29680
O970        O  0.49326441  0.05173153  0.18677981    -1.05580
H971        H  0.53836225  0.43918704  0.20644674     0.31730
O972        O  0.52667059  0.45904563  0.21760277    -1.08140
C973        C  0.77746441  0.33320053  0.06169707    -0.26890
C974        C  0.78695024  0.29665015  0.05412528    -0.14960
C975        C  0.80847777  0.28479927  0.09321740     0.35670
C976        C  0.82519123  0.31316877  0.13509702    -0.26340
C977        C  0.82022074  0.35296449  0.14085284    -0.15580
C978        C  0.79249185  0.36046250  0.10464832     0.36750
N979        N  0.77726924  0.39385070  0.11100809    -0.89830
H980        H  0.75730607  0.33993286  0.03390746     0.17870
H981        H  0.84436378  0.30460358  0.16259594     0.17860
N982        N  0.81585023  0.24555185  0.09153204    -0.88810
H983        H  0.80686484  0.42697410  0.11394897     0.35240
H984        H  0.75902421  0.38654137  0.14321182     0.40330
H985        H  0.80235001  0.22698784  0.05915702     0.39950
H986        H  0.79622822  0.22301753  0.11895046     0.34840
C987        C  0.68509815  0.22168497  0.06065366    -0.26890
C988        C  0.70685339  0.20255536  0.03279721    -0.14960
C989        C  0.69521907  0.15623534  0.03976273     0.35670
C990        C  0.66074433  0.12945416  0.07273508    -0.26340
C991        C  0.64007448  0.14883508  0.10140373    -0.15580
C992        C  0.65312000  0.19585065  0.09621047     0.36750
N993        N  0.63189502  0.21640657  0.12468910    -0.89830
H994        H  0.69165453  0.25634393  0.05341989     0.17870
H995        H  0.65028859  0.09315026  0.07650260     0.17860
N996        N  0.71821905  0.13641831  0.51321869    -0.88860
H997        H  0.64244530  0.25008982  0.11316739     0.35240
H998        H  0.64564343  0.21974740  0.16027492     0.40330
H999        H  0.75460432  0.15466049  0.52283544     0.39950
H1000       H  0.70626072  0.10237219  0.52421164     0.34840
C1001       C  0.88639938  0.34259403  0.43375204    -0.26890
C1002       C  0.87022117  0.36195412  0.39794889    -0.14960
C1003       C  0.82197063  0.35064302  0.39505213     0.35670
C1004       C  0.79090931  0.32085645  0.42955229    -0.26340
C1005       C  0.80752780  0.30197472  0.46583350    -0.15580
C1006       C  0.85513030  0.31174632  0.46718581     0.36750
N1007       N  0.87106217  0.28970398  0.00225908    -0.89830
H1008       H  0.92322121  0.35120845  0.43514101     0.17870
H1009       H  0.75409615  0.31304040  0.42878353     0.17860
N1010       N  0.80504891  0.36985684  0.35753143    -0.88860
H1011       H  0.90700527  0.30066215  0.99861103     0.35240
H1012       H  0.85294787  0.25427266  0.99385131     0.40330
H1013       H  0.82220383  0.40569650  0.36334966     0.39950
H1014       H  0.76852918  0.35765681  0.36029950     0.34840
C1015       C  0.66097620  0.17892142  0.37868563    -0.26890
C1016       C  0.68431665  0.16077924  0.35214549    -0.14960
C1017       C  0.73071634  0.17108548  0.36940763     0.35670
C1018       C  0.74976766  0.19534485  0.41457010    -0.26340
C1019       C  0.72376252  0.21017891  0.44245887    -0.15580
C1020       C  0.67978158  0.20288411  0.42249319     0.36750
N1021       N  0.65246259  0.21890966  0.44672737    -0.89830
H1022       H  0.62574190  0.17198979  0.36659866     0.17870
H1023       H  0.78437708  0.20162774  0.42833996     0.17860
N1024       N  0.75991590  0.15934670  0.34152885    -0.88860
H1025       H  0.63775620  0.19846921  0.47697795     0.35240
H1026       H  0.67449366  0.25366856  0.45686462     0.40330
H1027       H  0.74219184  0.14254713  0.30911642     0.39950
H1028       H  0.76652668  0.13623011  0.36152506     0.34840
C1029       C  0.82558681  0.02671704  0.04112286    -0.26890
C1030       C  0.79309906  0.48588554  0.01687410    -0.14960
C1031       C  0.80740011  0.45213410  0.00931764     0.35670
C1032       C  0.85125129  0.45866436  0.03001114    -0.26340
C1033       C  0.88352041  0.00028288  0.05420877    -0.15580
C1034       C  0.87099885  0.03529748  0.05577407     0.36750
N1035       N  0.90373735  0.07957919  0.07585787    -0.89830
H1036       H  0.81762829  0.05462899  0.04447622     0.17870
H1037       H  0.85896199  0.43042270  0.02913891     0.17860
N1038       N  0.77772999  0.41043220  0.98224722    -0.88860
H1039       H  0.88663546  0.08571214  0.10388597     0.35240
H1040       H  0.90978904  0.10401735  0.04892308     0.40330
H1041       H  0.74299282  0.39576686  0.99433083     0.39950
H1042       H  0.77781084  0.41849018  0.94572564     0.34840
C1043       C  0.65525869  0.45472115  0.12266013    -0.26890
C1044       C  0.66455776  0.99782335  0.14132613    -0.14960
C1045       C  0.70504356  0.03848852  0.12584888     0.35670
C1046       C  0.72951685  0.03580130  0.08618541    -0.26340
C1047       C  0.71532001  0.49336808  0.06237448    -0.15580
C1048       C  0.68141697  0.45207622  0.08411873     0.36750
N1049       N  0.66835463  0.40821114  0.06186876    -0.89830
H1050       H  0.62494432  0.42335962  0.13524721     0.17870
H1051       H  0.75604964  0.06779206  0.07035328     0.17860
N1052       N  0.72113358  0.08311374  0.14807668    -0.88860
H1053       H  0.64119867  0.38117945  0.08068702     0.35240
H1054       H  0.69808425  0.40357875  0.06530121     0.40330
H1055       H  0.69946478  0.08125185  0.17605668     0.39950
H1056       H  0.71943819  0.10515243  0.12191244     0.34840
C1057       C  0.81599982  0.54100063  0.43275557    -0.26890
C1058       C  0.77035601  0.50217183  0.43562613    -0.14960
C1059       C  0.75328033  0.47049838  0.39611707     0.35670
C1060       C  0.78436958  0.97616308  0.35822087    -0.26340
C1061       C  0.83339007  0.00878633  0.36333507    -0.15580
C1062       C  0.84930741  0.53915647  0.40394931     0.36750
N1063       N  0.89861832  0.56301907  0.42050280    -0.89830
H1064       H  0.82894871  0.56726153  0.46102673     0.17870
H1065       H  0.77173632  0.95174185  0.32806672     0.17860
N1066       N  0.70593544  0.43159430  0.39574316    -0.88860
H1067       H  0.90620541  0.53823212  0.43542989     0.35240
H1068       H  0.90408421  0.08545662  0.44944448     0.40330
H1069       H  0.70242974  0.41193575  0.42660762     0.39950
H1070       H  0.70118645  0.41012841  0.36613298     0.34840
C1071       C  0.63812072  0.48846624  0.49892249    -0.26890
C1072       C  0.68565334  0.50786121  0.48277291    -0.14960
C1073       C  0.70115891  0.54609479  0.45157575     0.35670
C1074       C  0.66807737  0.55747708  0.43081643    -0.26340
C1075       C  0.61965463  0.53344423  0.44221526    -0.15580
C1076       C  0.60691466  0.50407717  0.48192773     0.36750
N1077       N  0.56557600  0.49395671  0.00852006    -0.89830
H1078       H  0.62506749  0.46228026  0.02636686     0.17870
H1079       H  0.67950610  0.08275498  0.40229599     0.17860
N1080       N  0.75034930  0.57480006  0.44183605    -0.88860
H1081       H  0.54090415  0.45899517  0.00478848     0.35240
H1082       H  0.54917442  0.51218625  0.49459790     0.40330
H1083       H  0.76098840  0.60896118  0.45168274     0.39950
H1084       H  0.75369251  0.07362430  0.40446068     0.34840
C1085       C  0.97929241  0.36815491  0.05307518    -0.26890
C1086       C  0.97948621  0.35657271  0.10185887    -0.14960
C1087       C  0.49859271  0.32789513  0.11543387     0.35670
C1088       C  0.51209844  0.30778886  0.07890487    -0.26340
C1089       C  0.00596154  0.31514967  0.02929851    -0.15580
C1090       C  0.99785619  0.35254044  0.01846508     0.36750
N1091       N  0.01775564  0.38255600  0.47822381    -0.89830
H1092       H  0.96995497  0.39426236  0.04233582     0.17870
H1093       H  0.52850290  0.28746933  0.08968914     0.17860
N1094       N  0.50566272  0.32049801  0.16576294    -0.88860
H1095       H  0.99772825  0.36992241  0.44618404     0.35240
H1096       H  0.05364733  0.39219829  0.47546512     0.40330
H1097       H  0.53182513  0.35221211  0.18082228     0.39950
H1098       H  0.51917382  0.29772911  0.16934461     0.34840
C1099       C  0.01507669  0.19237882  0.05630358    -0.26890
C1100       C  0.98661728  0.21242138  0.04564032    -0.14960
C1101       C  0.94968326  0.20295388  0.07812049     0.35670
C1102       C  0.94568130  0.17780332  0.12190764    -0.26340
C1103       C  0.97492053  0.15770701  0.13145477    -0.15580
C1104       C  0.00741990  0.16309718  0.09566906     0.36750
N1105       N  0.02892892  0.13436542  0.09608549    -0.89830
H1106       H  0.04188463  0.19657537  0.03162871     0.17870
H1107       H  0.91845782  0.17223793  0.14700278     0.17860
N1108       N  0.41552540  0.21744582  0.06623558    -0.88860
H1109       H  0.05291985  0.14343375  0.06827570     0.35240
H1110       H  0.00170448  0.10096911  0.08669464     0.40330
H1111       H  0.41555358  0.23777882  0.09494774     0.39950
H1112       H  0.38177970  0.18783825  0.06366525     0.34840
C1113       C  0.97676748  0.31764143  0.36513747    -0.26890
C1114       C  0.52245431  0.35180007  0.35075568    -0.14960
C1115       C  0.56247399  0.35485371  0.37680100     0.35670
C1116       C  0.55617856  0.33077327  0.42078944    -0.26340
C1117       C  0.51043044  0.30076292  0.43800940    -0.15580
C1118       C  0.97025470  0.29229155  0.40811353     0.36750
N1119       N  0.92294900  0.26373624  0.42496648    -0.89830
H1120       H  0.94523074  0.31350933  0.34533460     0.17870
H1121       H  0.58745337  0.33803707  0.44309922     0.17860
N1122       N  0.60965873  0.38092792  0.35931627    -0.88860
H1123       H  0.89751272  0.26467971  0.40104657     0.35240
H1124       H  0.91547823  0.22955931  0.42466257     0.40330
H1125       H  0.60928467  0.39355533  0.32467785     0.39950
H1126       H  0.62162962  0.35721331  0.35458438     0.34840
C1127       C  0.55228110  0.20101867  0.40365702    -0.26890
C1128       C  0.51217099  0.16550822  0.37958398    -0.14960
C1129       C  0.96688115  0.15940983  0.38801417     0.35670
C1130       C  0.96107792  0.18064537  0.42883135    -0.26340
C1131       C  0.50102811  0.21397608  0.45555177    -0.15580
C1132       C  0.54712178  0.22608860  0.44118304     0.36750
N1133       N  0.58826594  0.26253355  0.46621093    -0.89830
H1134       H  0.58715824  0.20913484  0.39292875     0.17870
H1135       H  0.92558771  0.17116157  0.43958510     0.17860
N1136       N  0.92750491  0.13239025  0.35452703    -0.88860
H1137       H  0.61233899  0.28365603  0.44055490     0.35240
H1138       H  0.60464964  0.24800380  0.48759470     0.40330
H1139       H  0.93606494  0.14851607  0.32084544     0.39950
H1140       H  0.89706998  0.13313626  0.36487302     0.34840
C1141       C  0.99488164  0.23809782  0.49747403    -0.00010
C1142       C  0.50479672  0.28324623  0.98980784    -0.00010
C1143       C  0.71988191  0.49486643  0.00836599    -0.00010
C1144       C  0.75447213  0.48853270  0.98671496    -0.00010
C1145       C  0.77590171  0.27377716  0.00423753    -0.00010
C1146       C  0.73898742  0.23011228  0.99378370    -0.00010
O1147       O  0.53772488  0.14439728  0.81015567    -0.80700
O1148       O  0.90540507  0.38001193  0.82216298    -0.82260
O1149       O  0.90438429  0.00761560  0.85538203    -0.79280
O1150       O  0.54464959  0.02248144  0.90369038    -0.77660
O1151       O  0.60122046  0.01646598  0.86188083    -0.79450
O1152       O  0.86452067  0.00743018  0.78487359    -0.80380
O1153       O  0.92915571  0.43749521  0.87973980    -0.81710
O1154       O  0.99705677  0.08962394  0.86714825    -0.82000
Eu1155     Eu  0.97982974  0.01178576  0.84104523     2.39200
O1156       O  0.00564279  0.46278881  0.81023045    -0.89510
O1157       O  0.97361255  0.05803046  0.77824226    -0.93110
C1158       C  0.51647861  0.13127277  0.85045639     1.01580
C1159       C  0.90424175  0.39512554  0.86465674     1.01400
C1160       C  0.86908808  0.00737643  0.83193478     1.01340
C1161       C  0.58540277  0.02349029  0.90072294     0.99200
H1162       H  0.89185376  0.44405309  0.79256248     0.28950
O1163       O  0.92326516  0.46288551  0.78023343    -1.01900
H1164       H  0.57140417  0.07572738  0.83356187     0.28980
O1165       O  0.55278810  0.05608561  0.80661787    -1.04440
O1166       O  0.95900216  0.37349426  0.67913461    -0.81660
O1167       O  0.60060975  0.13397251  0.67547204    -0.81200
O1168       O  0.85840698  0.43019551  0.68035478    -0.79640
O1169       O  0.56040186  0.42947823  0.81517548    -0.82980
O1170       O  0.64829961  0.08640412  0.80905190    -0.80830
O1171       O  0.93446058  0.08778253  0.68145350    -0.79480
O1172       O  0.95442433  0.00055606  0.59304769    -0.81000
O1173       O  0.59246361  0.99998169  0.64264998    -0.82930
O1174       O  0.89555469  0.00219507  0.63562965    -0.79670
O1175       O  0.63122599  0.00293258  0.71533904    -0.82340
O1176       O  0.87280999  0.37383670  0.70964814    -0.78080
O1177       O  0.51309094  0.14164648  0.69740692    -0.78110
O1178       O  0.62847007  0.14151119  0.78634700    -0.77750
O1179       O  0.98674201  0.37335455  0.78754445    -0.81250
O1180       O  0.49274718  0.42913902  0.62178711    -0.80680
O1181       O  0.57592770  0.07604485  0.61872393    -0.79000
Eu1182     Eu  0.95083438  0.41458477  0.74953040     2.39770
Eu1183     Eu  0.54918532  0.10263976  0.74446705     2.39570
Eu1184     Eu  0.91684788  0.00934348  0.71864829     2.38400
Eu1185     Eu  0.58135086  0.00784368  0.77826961     2.39880
Eu1186     Eu  0.51863167  0.00407255  0.65476531     2.39790
O1187       O  0.57517076  0.05301104  0.71492381    -0.93420
O1188       O  0.94487654  0.46122212  0.68943678    -0.92310
C1189       C  0.97544343  0.38747551  0.63664934     1.01750
C1190       C  0.60321963  0.11790156  0.63410747     1.00470
C1191       C  0.85059271  0.38766778  0.68049292     0.99860
C1192       C  0.52476649  0.38693954  0.81433429     1.01870
C1193       C  0.65450391  0.12831603  0.81096605     1.00790
C1194       C  0.97235458  0.12830601  0.67502963     0.99640
C1195       C  0.91380411  0.00027098  0.59614825     0.99700
C1196       C  0.62707438  0.00027600  0.66846990     1.02310
H1197       H  0.49250728  0.06759110  0.65785829     0.29680
O1198       O  0.49326272  0.05174462  0.68675855    -1.05580
H1199       H  0.53835444  0.43918502  0.70644371     0.31730
O1200       O  0.52666323  0.45904387  0.71759923    -1.08140
C1201       C  0.77745848  0.33320652  0.56169233    -0.26890
C1202       C  0.78694287  0.29665485  0.55412346    -0.14960
C1203       C  0.80846613  0.28480237  0.59321810     0.35670
C1204       C  0.82517705  0.31317125  0.63509789    -0.26340
C1205       C  0.82021072  0.35296962  0.64085014    -0.15580
C1206       C  0.79248566  0.36046966  0.60464274     0.36750
N1207       N  0.77726712  0.39386143  0.61099843    -0.89830
H1208       H  0.75730269  0.33993971  0.53390063     0.17870
H1209       H  0.84434582  0.30460405  0.66259929     0.17860
N1210       N  0.81583749  0.24555427  0.59153517    -0.88810
H1211       H  0.80686469  0.42698356  0.61393953     0.35240
H1212       H  0.75902047  0.38655468  0.64320090     0.40330
H1213       H  0.80234175  0.22699211  0.55915872     0.39950
H1214       H  0.79621109  0.22301894  0.61895099     0.34840
C1215       C  0.68508779  0.22168853  0.56064326    -0.26890
C1216       C  0.70684711  0.20256037  0.53279064    -0.14960
C1217       C  0.69521770  0.15624230  0.53976123     0.35670
C1218       C  0.66074492  0.12946165  0.57273554    -0.26340
C1219       C  0.64007060  0.14884087  0.60140006    -0.15580
C1220       C  0.65310945  0.19585423  0.59620042     0.36750
N1221       N  0.63187880  0.21640786  0.62467392    -0.89830
H1222       H  0.69164264  0.25634673  0.55340711     0.17870
H1223       H  0.65029361  0.09315921  0.57650735     0.17860
N1224       N  0.71821670  0.13640993  0.01321618    -0.88860
H1225       H  0.64242539  0.25008935  0.61314864     0.35240
H1226       H  0.64562614  0.21975274  0.66026070     0.40330
H1227       H  0.75460205  0.15464844  0.02283345     0.39950
H1228       H  0.70625466  0.10236216  0.02420524     0.34840
C1229       C  0.88639749  0.34259869  0.93375002    -0.26890
C1230       C  0.87021318  0.36195122  0.89794442    -0.14960
C1231       C  0.82196012  0.35063181  0.89504733     0.35670
C1232       C  0.79090217  0.32084403  0.92954924    -0.26340
C1233       C  0.80752677  0.30196947  0.96583247    -0.15580
C1234       C  0.85513202  0.31174974  0.96718528     0.36750
N1235       N  0.87105403  0.28969342  0.50225751    -0.89830
H1236       H  0.92322154  0.35122007  0.93513973     0.17870
H1237       H  0.75408684  0.31302147  0.92878039     0.17860
N1238       N  0.80503257  0.36983891  0.85752500    -0.88860
H1239       H  0.90699620  0.30064631  0.49861013     0.35240
H1240       H  0.85293462  0.25426257  0.49384723     0.40330
H1241       H  0.82218260  0.40567871  0.86334069     0.39950
H1242       H  0.76851195  0.35763385  0.86029366     0.34840
C1243       C  0.66096224  0.17889688  0.87870130    -0.26890
C1244       C  0.68430847  0.16076685  0.85215243    -0.14960
C1245       C  0.73071298  0.17108191  0.86940758     0.35670
C1246       C  0.74976716  0.19534381  0.91456846    -0.26340
C1247       C  0.72375932  0.21016991  0.94246384    -0.15580
C1248       C  0.67976983  0.20286123  0.92250757     0.36750
N1249       N  0.65244643  0.21887799  0.94674782    -0.89830
H1250       H  0.62572295  0.17195557  0.86662111     0.17870
H1251       H  0.78438121  0.20163475  0.92833214     0.17860
N1252       N  0.75991408  0.15934902  0.84152378    -0.88860
H1253       H  0.63774533  0.19843645  0.97699901     0.35240
H1254       H  0.67447377  0.25363783  0.95688395     0.40330
H1255       H  0.74218675  0.14254482  0.80911429     0.39950
H1256       H  0.76653441  0.13623799  0.86151928     0.34840
C1257       C  0.82558525  0.02671330  0.54112975    -0.26890
C1258       C  0.79310003  0.48588421  0.51687620    -0.14960
C1259       C  0.80740453  0.45213648  0.50931144     0.35670
C1260       C  0.85125661  0.45866729  0.53000261    -0.26340
C1261       C  0.88352380  0.00028443  0.55420336    -0.15580
C1262       C  0.87099936  0.03529673  0.55577449     0.36750
N1263       N  0.90373694  0.07957856  0.57585868    -0.89830
H1264       H  0.81762472  0.05462346  0.54448783     0.17870
H1265       H  0.85896979  0.43042740  0.52912548     0.17860
N1266       N  0.77773710  0.41043800  0.48223461    -0.88860
H1267       H  0.88663586  0.08570930  0.60388919     0.35240
H1268       H  0.90978482  0.10401701  0.54892531     0.40330
H1269       H  0.74299882  0.39577034  0.49431570     0.39950
H1270       H  0.77781996  0.41850105  0.44571441     0.34840
C1271       C  0.65525175  0.45471590  0.62265661    -0.26890
C1272       C  0.66455209  0.99781752  0.64132579    -0.14960
C1273       C  0.70504001  0.03848270  0.62585208     0.35670
C1274       C  0.72951547  0.03579670  0.58618995    -0.26340
C1275       C  0.71531867  0.49336476  0.56237613    -0.15580
C1276       C  0.68141189  0.45207209  0.58411623     0.36750
N1277       N  0.66834799  0.40820804  0.56186263    -0.89830
H1278       H  0.62493525  0.42335429  0.63524038     0.17870
H1279       H  0.75604994  0.06778817  0.57036051     0.17860
N1280       N  0.72112955  0.08310726  0.64808131    -0.88860
H1281       H  0.64119001  0.38117572  0.58067830     0.35240
H1282       H  0.69807613  0.40357325  0.56529476     0.40330
H1283       H  0.69946027  0.08124456  0.67606116     0.39950
H1284       H  0.71943437  0.10514656  0.62191761     0.34840
C1285       C  0.81598730  0.54099492  0.93274607    -0.26890
C1286       C  0.77034680  0.50216287  0.93562209    -0.14960
C1287       C  0.75327172  0.47048417  0.89611744     0.35670
C1288       C  0.78435920  0.97614914  0.85821899    -0.26340
C1289       C  0.83337816  0.00878005  0.86332623    -0.15580
C1290       C  0.84929488  0.53915480  0.90393653     0.36750
N1291       N  0.89860698  0.56302496  0.92048511    -0.89830
H1292       H  0.82893544  0.56725789  0.96101506     0.17870
H1293       H  0.77172673  0.95172386  0.82806853     0.17860
N1294       N  0.70592909  0.43157616  0.89574938    -0.88860
H1295       H  0.90620013  0.53824305  0.93541517     0.35240
H1296       H  0.90407203  0.08546488  0.94942408     0.40330
H1297       H  0.70242660  0.41192380  0.92661815     0.39950
H1298       H  0.70118155  0.41010564  0.86614405     0.34840
C1299       C  0.63811591  0.48846376  0.99892672    -0.26890
C1300       C  0.68564642  0.50785630  0.98277106    -0.14960
C1301       C  0.70114654  0.54608465  0.95156699     0.35670
C1302       C  0.66806223  0.55746427  0.93081003    -0.26340
C1303       C  0.61964087  0.53343182  0.94221358    -0.15580
C1304       C  0.60690605  0.50407011  0.98193064     0.36750
N1305       N  0.56558032  0.49395909  0.50851174    -0.89830
H1306       H  0.62506806  0.46227776  0.52635743     0.17870
H1307       H  0.67948773  0.08273956  0.90228680     0.17860
N1308       N  0.75033462  0.57478846  0.94181768    -0.88860
H1309       H  0.54090178  0.45900140  0.50475670     0.35240
H1310       H  0.54915824  0.51216921  0.99459534     0.40330
H1311       H  0.76097503  0.60895063  0.95166129     0.39950
H1312       H  0.75367083  0.07360866  0.90444122     0.34840
C1313       C  0.97928621  0.36815304  0.55307208    -0.26890
C1314       C  0.97948021  0.35657210  0.60185609    -0.14960
C1315       C  0.49858609  0.32789418  0.61543229     0.35670
C1316       C  0.51209077  0.30778610  0.57890419    -0.26340
C1317       C  0.00595402  0.31514593  0.52929762    -0.15580
C1318       C  0.99784966  0.35253722  0.51846299     0.36750
N1319       N  0.01775819  0.38255797  0.97822408    -0.89830
H1320       H  0.96995104  0.39426194  0.54233207     0.17870
H1321       H  0.52849447  0.28746607  0.58968922     0.17860
N1322       N  0.50565688  0.32049882  0.66576169    -0.88860
H1323       H  0.99772689  0.36992344  0.94618655     0.35240
H1324       H  0.05364922  0.39219952  0.97546088     0.40330
H1325       H  0.53181986  0.35221333  0.68081971     0.39950
H1326       H  0.51916763  0.29772969  0.66934432     0.34840
C1327       C  0.01506603  0.19237025  0.55630238    -0.26890
C1328       C  0.98660968  0.21241685  0.54564021    -0.14960
C1329       C  0.94967742  0.20295280  0.57812146     0.35670
C1330       C  0.94567692  0.17780549  0.62191046    -0.26340
C1331       C  0.97491534  0.15770855  0.63145824    -0.15580
C1332       C  0.00740895  0.16309039  0.59566982     0.36750
N1333       N  0.02891425  0.13435494  0.59608933    -0.89830
H1334       H  0.04187199  0.19656320  0.53162649     0.17870
H1335       H  0.91845524  0.17224309  0.64700671     0.17860
N1336       N  0.41551959  0.21744457  0.56623563    -0.88860
H1337       H  0.05288811  0.14340480  0.56826545     0.35240
H1338       H  0.00168336  0.10094969  0.58674037     0.40330
H1339       H  0.41554874  0.23777935  0.59494648     0.39950
H1340       H  0.38177371  0.18783709  0.56366733     0.34840
C1341       C  0.97676296  0.31764071  0.86513983    -0.26890
C1342       C  0.52244826  0.35179750  0.85075273    -0.14960
C1343       C  0.56247030  0.35485141  0.87679360     0.35670
C1344       C  0.55617909  0.33077369  0.92078344    -0.26340
C1345       C  0.51043273  0.30076554  0.93800888    -0.15580
C1346       C  0.97025429  0.29229351  0.90811719     0.36750
N1347       N  0.92295053  0.26374118  0.92497608    -0.89830
H1348       H  0.94522456  0.31350864  0.84534050     0.17870
H1349       H  0.58745597  0.33803754  0.94308957     0.17860
N1350       N  0.60965307  0.38092321  0.85930292    -0.88860
H1351       H  0.89751195  0.26468154  0.90105708     0.35240
H1352       H  0.91547916  0.22956408  0.92467802     0.40330
H1353       H  0.60927533  0.39354850  0.82466421     0.39950
H1354       H  0.62162217  0.35720741  0.85456960     0.34840
C1355       C  0.55228710  0.20102151  0.90365637    -0.26890
C1356       C  0.51217593  0.16551240  0.87958267    -0.14960
C1357       C  0.96688738  0.15941775  0.88801139     0.35670
C1358       C  0.96108480  0.18065230  0.92882962    -0.26340
C1359       C  0.50103524  0.21398068  0.95555146    -0.15580
C1360       C  0.54712868  0.22609235  0.94118233     0.36750
N1361       N  0.58827335  0.26253799  0.96620892    -0.89830
H1362       H  0.58716432  0.20913676  0.89292829     0.17870
H1363       H  0.92559481  0.17116950  0.93958286     0.17860
N1364       N  0.92751203  0.13240361  0.85452124    -0.88860
H1365       H  0.61234647  0.28365909  0.94055223     0.35240
H1366       H  0.60465678  0.24800883  0.98759396     0.40330
H1367       H  0.93607535  0.14853241  0.82084133     0.39950
H1368       H  0.89707806  0.13315169  0.86486681     0.34840
C1369       C  0.99488893  0.73810226  0.99747406    -0.00010
C1370       C  0.50478996  0.78324206  0.48980775    -0.00010
C1371       C  0.71988477  0.99486707  0.50836792    -0.00010
C1372       C  0.75447633  0.98853552  0.48671696    -0.00010
C1373       C  0.77589863  0.77378274  0.50423605    -0.00010
C1374       C  0.73898518  0.73011825  0.49377996    -0.00010
O1375       O  0.53772249  0.64439519  0.31015709    -0.80700
O1376       O  0.90541630  0.88001314  0.32216931    -0.82260
O1377       O  0.90439528  0.50762027  0.35538878    -0.79280
O1378       O  0.54466250  0.52248820  0.40369076    -0.77660
O1379       O  0.60123943  0.51648333  0.36188080    -0.79450
O1380       O  0.86452774  0.50743092  0.28488172    -0.80380
O1381       O  0.92916622  0.93749711  0.37974521    -0.81710
O1382       O  0.99705948  0.58962244  0.36715180    -0.82000
Eu1383     Eu  0.97983809  0.51178687  0.34104856     2.39200
O1384       O  0.00565213  0.96279084  0.31023391    -0.89510
O1385       O  0.97361612  0.55802901  0.27824554    -0.93110
C1386       C  0.51647713  0.63127034  0.35045836     1.01580
C1387       C  0.90425266  0.89512726  0.36466267     1.01400
C1388       C  0.86909828  0.50738063  0.33194282     1.01340
C1389       C  0.58541915  0.52350408  0.40072298     0.99200
H1390       H  0.89186041  0.94405162  0.29256980     0.28950
O1391       O  0.92327135  0.96288418  0.28023908    -1.01900
H1392       H  0.57141221  0.57573340  0.33356423     0.28980
O1393       O  0.55279589  0.55608952  0.30662119    -1.04440
O1394       O  0.95900970  0.87349406  0.17913906    -0.81660
O1395       O  0.60061226  0.63396689  0.17547404    -0.81200
O1396       O  0.85841359  0.93018951  0.18035943    -0.79640
O1397       O  0.56040884  0.92948268  0.31518106    -0.82980
O1398       O  0.64830659  0.58641219  0.30905146    -0.80830
O1399       O  0.93446558  0.58777898  0.18145087    -0.79480
O1400       O  0.95442161  0.50055475  0.09305419    -0.81000
O1401       O  0.59246741  0.49998351  0.14265263    -0.82930
O1402       O  0.89555265  0.50219600  0.13563579    -0.79670
O1403       O  0.63123421  0.50293931  0.21534036    -0.82340
O1404       O  0.87281814  0.87383178  0.20965300    -0.78080
O1405       O  0.51309575  0.64164358  0.19740289    -0.78110
O1406       O  0.62847473  0.64151659  0.28634265    -0.77750
O1407       O  0.98675377  0.87335623  0.28754202    -0.81250
O1408       O  0.49274971  0.92913793  0.12179031    -0.80680
O1409       O  0.57592677  0.57604077  0.11872366    -0.79000
Eu1410     Eu  0.95084246  0.91458512  0.24953485     2.39770
Eu1411     Eu  0.54918803  0.60263957  0.24446931     2.39570
Eu1412     Eu  0.91684991  0.50933988  0.21865332     2.38400
Eu1413     Eu  0.58135938  0.50784838  0.27827195     2.39880
Eu1414     Eu  0.51863315  0.50407046  0.15476856     2.39790
O1415       O  0.57517366  0.55301151  0.21492514    -0.93420
O1416       O  0.94487851  0.96121856  0.18944035    -0.92310
C1417       C  0.97544867  0.88747504  0.13665299     1.01750
C1418       C  0.60322137  0.61789626  0.13410905     1.00470
C1419       C  0.85060072  0.88766214  0.18049709     0.99860
C1420       C  0.52477536  0.88694271  0.31433653     1.01870
C1421       C  0.65451001  0.62832402  0.31096265     1.00790
C1422       C  0.97235956  0.62830255  0.17502558     0.99640
C1423       C  0.91380163  0.50027090  0.09615438     0.99700
C1424       C  0.62708051  0.50028110  0.16847141     1.02310
H1425       H  0.49250073  0.56758264  0.15785468     0.29680
O1426       O  0.49326445  0.55173162  0.18677968    -1.05580
H1427       H  0.53836219  0.93918699  0.20644675     0.31730
O1428       O  0.52667054  0.95904558  0.21760279    -1.08140
C1429       C  0.77746450  0.83320054  0.06169706    -0.26890
C1430       C  0.78695032  0.79665016  0.05412526    -0.14960
C1431       C  0.80847782  0.78479926  0.09321739     0.35670
C1432       C  0.82519127  0.81316875  0.13509702    -0.26340
C1433       C  0.82022077  0.85296446  0.14085285    -0.15580
C1434       C  0.79249191  0.86046249  0.10464832     0.36750
N1435       N  0.77726931  0.89385069  0.11100808    -0.89830
H1436       H  0.75730619  0.83993290  0.03390743     0.17870
H1437       H  0.84436381  0.80460354  0.16259595     0.17860
N1438       N  0.81585029  0.74555185  0.09153202    -0.88810
H1439       H  0.80686491  0.92697410  0.11394899     0.35240
H1440       H  0.75902426  0.88654136  0.14321180     0.40330
H1441       H  0.80235009  0.72698785  0.05915699     0.39950
H1442       H  0.79622827  0.72301751  0.11895043     0.34840
C1443       C  0.68509820  0.72168498  0.06065355    -0.26890
C1444       C  0.70685345  0.70255537  0.03279711    -0.14960
C1445       C  0.69521914  0.65623536  0.03976265     0.35670
C1446       C  0.66074440  0.62945418  0.07273502    -0.26340
C1447       C  0.64007456  0.64883511  0.10140366    -0.15580
C1448       C  0.65312008  0.69585068  0.09621038     0.36750
N1449       N  0.63189512  0.71640662  0.12468902    -0.89830
H1450       H  0.69165460  0.75634395  0.05341978     0.17870
H1451       H  0.65028868  0.59315029  0.07650256     0.17860
N1452       N  0.71821898  0.63641830  0.51321870    -0.88860
H1453       H  0.64244541  0.75008987  0.11316731     0.35240
H1454       H  0.64564355  0.71974744  0.16027484     0.40330
H1455       H  0.75460425  0.65466046  0.52283545     0.39950
H1456       H  0.70626063  0.60237217  0.52421164     0.34840
C1457       C  0.88639937  0.84259398  0.43375207    -0.26890
C1458       C  0.87022118  0.86195407  0.39794891    -0.14960
C1459       C  0.82197064  0.85064299  0.39505216     0.35670
C1460       C  0.79090931  0.82085641  0.42955231    -0.26340
C1461       C  0.80752779  0.80197468  0.46583352    -0.15580
C1462       C  0.85513029  0.81174627  0.46718584     0.36750
N1463       N  0.87106230  0.78970407  0.00225909    -0.89830
H1464       H  0.92322120  0.85120839  0.43514104     0.17870
H1465       H  0.75409615  0.81304037  0.42878354     0.17860
N1466       N  0.80504893  0.86985683  0.35753146    -0.88860
H1467       H  0.90700540  0.80066224  0.99861104     0.35240
H1468       H  0.85294799  0.75427275  0.99385133     0.40330
H1469       H  0.82220386  0.90569648  0.36334970     0.39950
H1470       H  0.76852920  0.85765681  0.36029952     0.34840
C1471       C  0.66097608  0.67892127  0.37868573    -0.26890
C1472       C  0.68431662  0.66077922  0.35214552    -0.14960
C1473       C  0.73071635  0.67108555  0.36940763     0.35670
C1474       C  0.74976766  0.69534492  0.41457010    -0.26340
C1475       C  0.72376246  0.71017888  0.44245892    -0.15580
C1476       C  0.67978145  0.70288395  0.42249330     0.36750
N1477       N  0.65246240  0.71890940  0.44672752    -0.89830
H1478       H  0.62574174  0.67198955  0.36659880     0.17870
H1479       H  0.78437711  0.70162789  0.42833992     0.17860
N1480       N  0.75991595  0.65934684  0.34152883    -0.88860
H1481       H  0.63775604  0.69846893  0.47697810     0.35240
H1482       H  0.67449342  0.75366831  0.45686477     0.40330
H1483       H  0.74219189  0.64254726  0.30911641     0.39950
H1484       H  0.76652679  0.63623029  0.36152503     0.34840
C1485       C  0.82558682  0.52671699  0.04112285    -0.26890
C1486       C  0.79309907  0.98588560  0.01687407    -0.14960
C1487       C  0.80740012  0.95213417  0.00931763     0.35670
C1488       C  0.85125130  0.95866443  0.03001116    -0.26340
C1489       C  0.88352043  0.50028282  0.05420870    -0.15580
C1490       C  0.87099888  0.53529744  0.05577400     0.36750
N1491       N  0.90373742  0.57957916  0.07585775    -0.89830
H1492       H  0.81762832  0.55462894  0.04447623     0.17870
H1493       H  0.85896201  0.93042277  0.02913893     0.17860
N1494       N  0.77773003  0.91043227  0.98224719    -0.88860
H1495       H  0.88663556  0.58571214  0.10388587     0.35240
H1496       H  0.90978908  0.60401730  0.04892295     0.40330
H1497       H  0.74299286  0.89576691  0.99433080     0.39950
H1498       H  0.77781088  0.91849027  0.94572562     0.34840
C1499       C  0.65525867  0.95472116  0.12266007    -0.26890
C1500       C  0.66455780  0.49782335  0.14132617    -0.14960
C1501       C  0.70504361  0.53848850  0.12584892     0.35670
C1502       C  0.72951689  0.53580127  0.08618546    -0.26340
C1503       C  0.71531999  0.99336812  0.06237443    -0.15580
C1504       C  0.68141696  0.95207626  0.08411868     0.36750
N1505       N  0.66835465  0.90821118  0.06186871    -0.89830
H1506       H  0.62494431  0.92335963  0.13524715     0.17870
H1507       H  0.75604969  0.56779202  0.07035332     0.17860
N1508       N  0.72113364  0.58311373  0.14807670    -0.88860
H1509       H  0.64119871  0.88117948  0.08068697     0.35240
H1510       H  0.69808428  0.90357881  0.06530117     0.40330
H1511       H  0.69946485  0.58125185  0.17605671     0.39950
H1512       H  0.71943823  0.60515241  0.12191245     0.34840
C1513       C  0.81599982  0.04100061  0.43275561    -0.26890
C1514       C  0.77035601  0.00217182  0.43562618    -0.14960
C1515       C  0.75328034  0.97049837  0.39611711     0.35670
C1516       C  0.78436957  0.47616310  0.35822081    -0.26340
C1517       C  0.83339006  0.50878636  0.36333500    -0.15580
C1518       C  0.84930742  0.03915644  0.40394937     0.36750
N1519       N  0.89861833  0.06301905  0.42050285    -0.89830
H1520       H  0.82894872  0.06726153  0.46102677     0.17870
H1521       H  0.77173630  0.45174188  0.32806667     0.17860
N1522       N  0.70593544  0.93159429  0.39574320    -0.88860
H1523       H  0.90620543  0.03823211  0.43542994     0.35240
H1524       H  0.90408421  0.58545664  0.44944443     0.40330
H1525       H  0.70242974  0.91193574  0.42660766     0.39950
H1526       H  0.70118646  0.91012839  0.36613302     0.34840
C1527       C  0.63812072  0.98846620  0.49892254    -0.26890
C1528       C  0.68565335  0.00786117  0.48277296    -0.14960
C1529       C  0.70115890  0.04609474  0.45157578     0.35670
C1530       C  0.66807735  0.05747701  0.43081644    -0.26340
C1531       C  0.61965461  0.03344415  0.44221527    -0.15580
C1532       C  0.60691466  0.00407711  0.48192776     0.36750
N1533       N  0.56557598  0.99395670  0.00852002    -0.89830
H1534       H  0.62506748  0.96228026  0.02636678     0.17870
H1535       H  0.67950612  0.58275506  0.40229599     0.17860
N1536       N  0.75034930  0.07480002  0.44183609    -0.88860
H1537       H  0.54090414  0.95899516  0.00478841     0.35240
H1538       H  0.54917434  0.01218610  0.49459787     0.40330
H1539       H  0.76098838  0.10896114  0.45168275     0.39950
H1540       H  0.75369251  0.57362436  0.40446064     0.34840
C1541       C  0.97929251  0.86815498  0.05307519    -0.26890
C1542       C  0.97948623  0.85657272  0.10185887    -0.14960
C1543       C  0.49859250  0.82789502  0.11543386     0.35670
C1544       C  0.51209823  0.80778875  0.07890487    -0.26340
C1545       C  0.00596154  0.81514966  0.02929852    -0.15580
C1546       C  0.99785628  0.85254049  0.01846510     0.36750
N1547       N  0.01775566  0.88255602  0.47822378    -0.89830
H1548       H  0.96995512  0.89426246  0.04233583     0.17870
H1549       H  0.52850268  0.78746922  0.08968915     0.17860
N1550       N  0.50566244  0.82049786  0.16576293    -0.88860
H1551       H  0.99772826  0.86992242  0.44618402     0.35240
H1552       H  0.05364735  0.89219832  0.47546507     0.40330
H1553       H  0.53182488  0.85221193  0.18082230     0.39950
H1554       H  0.51917349  0.79772891  0.16934460     0.34840
C1555       C  0.01507660  0.69237875  0.05630357    -0.26890
C1556       C  0.98661720  0.71242134  0.04564030    -0.14960
C1557       C  0.94968318  0.70295384  0.07812047     0.35670
C1558       C  0.94568123  0.67780331  0.12190763    -0.26340
C1559       C  0.97492048  0.65770702  0.13145479    -0.15580
C1560       C  0.00741982  0.66309714  0.09566907     0.36750
N1561       N  0.02892885  0.63436538  0.09608557    -0.89830
H1562       H  0.04188455  0.69657530  0.03162870     0.17870
H1563       H  0.91845775  0.67223794  0.14700277     0.17860
N1564       N  0.41552519  0.71744565  0.06623554    -0.88860
H1565       H  0.05291958  0.64343351  0.06827562     0.35240
H1566       H  0.00170437  0.60096894  0.08669526     0.40330
H1567       H  0.41555334  0.73777866  0.09494768     0.39950
H1568       H  0.38177951  0.68783805  0.06366524     0.34840
C1569       C  0.97676757  0.81764145  0.36513747    -0.26890
C1570       C  0.52245430  0.85180003  0.35075565    -0.14960
C1571       C  0.56247398  0.85485371  0.37680100     0.35670
C1572       C  0.55617855  0.83077329  0.42078945    -0.26340
C1573       C  0.51043042  0.80076291  0.43800939    -0.15580
C1574       C  0.97025480  0.79229159  0.40811353     0.36750
N1575       N  0.92294912  0.76373628  0.42496651    -0.89830
H1576       H  0.94523081  0.81350934  0.34533461     0.17870
H1577       H  0.58745336  0.83803712  0.44309925     0.17860
N1578       N  0.60965873  0.88092795  0.35931629    -0.88860
H1579       H  0.89751283  0.76467973  0.40104660     0.35240
H1580       H  0.91547835  0.72955935  0.42466263     0.40330
H1581       H  0.60928467  0.89355534  0.32467787     0.39950
H1582       H  0.62162964  0.85721335  0.35458443     0.34840
C1583       C  0.55228115  0.70101875  0.40365698    -0.26890
C1584       C  0.51217105  0.66550828  0.37958395    -0.14960
C1585       C  0.96688124  0.65940988  0.38801416     0.35670
C1586       C  0.96107803  0.68064541  0.42883137    -0.26340
C1587       C  0.50102815  0.71397609  0.45555177    -0.15580
C1588       C  0.54712182  0.72608865  0.44118302     0.36750
N1589       N  0.58826597  0.76253362  0.46621092    -0.89830
H1590       H  0.58715830  0.70913495  0.39292869     0.17870
H1591       H  0.92558783  0.67116159  0.43958515     0.17860
N1592       N  0.92750498  0.63239031  0.35452705    -0.88860
H1593       H  0.61233902  0.78365609  0.44055489     0.35240
H1594       H  0.60464967  0.74800387  0.48759470     0.40330
H1595       H  0.93606498  0.64851614  0.32084546     0.39950
H1596       H  0.89707006  0.63313631  0.36487307     0.34840
C1597       C  0.99488177  0.73809788  0.49747403    -0.00010
C1598       C  0.50479654  0.78324614  0.98980784    -0.00010
C1599       C  0.71988191  0.99486648  0.00836594    -0.00010
C1600       C  0.75447214  0.98853276  0.98671491    -0.00010
C1601       C  0.77590181  0.77377720  0.00423751    -0.00010
C1602       C  0.73898754  0.73011232  0.99378364    -0.00010
O1603       O  0.53772479  0.64439722  0.81015573    -0.80700
O1604       O  0.90540514  0.88001198  0.82216296    -0.82260
O1605       O  0.90438427  0.50761555  0.85538207    -0.79280
O1606       O  0.54464960  0.52248139  0.90369041    -0.77660
O1607       O  0.60122050  0.51646598  0.86188085    -0.79450
O1608       O  0.86452064  0.50743014  0.78487364    -0.80380
O1609       O  0.92915578  0.93749527  0.87973977    -0.81710
O1610       O  0.99705672  0.58962387  0.86714831    -0.82000
Eu1611     Eu  0.97982971  0.51178571  0.84104528     2.39200
O1612       O  0.00564281  0.96278885  0.81023043    -0.89510
O1613       O  0.97361251  0.55803042  0.77824232    -0.93110
C1614       C  0.51647853  0.63127269  0.85045645     1.01580
C1615       C  0.90424184  0.89512560  0.86465672     1.01400
C1616       C  0.86908806  0.50737638  0.83193482     1.01340
C1617       C  0.58540280  0.52349027  0.90072296     0.99200
H1618       H  0.89185379  0.94405312  0.79256244     0.28950
O1619       O  0.92326519  0.96288554  0.78023339    -1.01900
H1620       H  0.57140420  0.57572740  0.83356194     0.28980
O1621       O  0.55278813  0.55608562  0.80661794    -1.04440
O1622       O  0.95900224  0.87349430  0.67913458    -0.81660
O1623       O  0.60060972  0.63397250  0.67547210    -0.81200
O1624       O  0.85840700  0.93019555  0.68035475    -0.79640
O1625       O  0.56040180  0.92947819  0.81517549    -0.82980
O1626       O  0.64829964  0.58640418  0.80905191    -0.80830
O1627       O  0.93446060  0.58778251  0.68145348    -0.79480
O1628       O  0.95442427  0.50055604  0.59304774    -0.81000
O1629       O  0.59246359  0.49998170  0.64264998    -0.82930
O1630       O  0.89555463  0.50219507  0.63562970    -0.79670
O1631       O  0.63122601  0.50293263  0.71533903    -0.82340
O1632       O  0.87281002  0.87383674  0.70964811    -0.78080
O1633       O  0.51309096  0.64164645  0.69740691    -0.78110
O1634       O  0.62847006  0.64151122  0.78634700    -0.77750
O1635       O  0.98674202  0.87335457  0.78754443    -0.81250
O1636       O  0.49274719  0.92913902  0.62178709    -0.80680
O1637       O  0.57592766  0.57604485  0.61872398    -0.79000
Eu1638     Eu  0.95083442  0.91458481  0.74953036     2.39770
Eu1639     Eu  0.54918530  0.60263974  0.74446711     2.39570
Eu1640     Eu  0.91684784  0.50934344  0.71864834     2.38400
Eu1641     Eu  0.58135089  0.50784371  0.77826963     2.39880
Eu1642     Eu  0.51863165  0.50407254  0.65476535     2.39790
O1643       O  0.57517075  0.55301105  0.71492383    -0.93420
O1644       O  0.94487659  0.96122217  0.68943674    -0.92310
C1645       C  0.97544352  0.88747556  0.63664932     1.01750
C1646       C  0.60321960  0.61790156  0.63410753     1.00470
C1647       C  0.85059274  0.88766782  0.68049290     0.99860
C1648       C  0.52476642  0.88693952  0.81433429     1.01870
C1649       C  0.65450393  0.62831609  0.81096604     1.00790
C1650       C  0.97235460  0.62830598  0.67502960     0.99640
C1651       C  0.91380406  0.50027098  0.59614830     0.99700
C1652       C  0.62707439  0.50027603  0.66846989     1.02310
H1653       H  0.49250717  0.56759103  0.65785825     0.29680
O1654       O  0.49326270  0.55174447  0.68675881    -1.05580
H1655       H  0.53835441  0.93918500  0.70644369     0.31730
O1656       O  0.52666321  0.95904386  0.71759920    -1.08140
C1657       C  0.77745848  0.83320653  0.56169233    -0.26890
C1658       C  0.78694287  0.79665485  0.55412347    -0.14960
C1659       C  0.80846611  0.78480238  0.59321813     0.35670
C1660       C  0.82517705  0.81317126  0.63509791    -0.26340
C1661       C  0.82021073  0.85296965  0.64085013    -0.15580
C1662       C  0.79248567  0.86046968  0.60464273     0.36750
N1663       N  0.77726714  0.89386146  0.61099841    -0.89830
H1664       H  0.75730269  0.83993971  0.53390063     0.17870
H1665       H  0.84434580  0.80460406  0.66259932     0.17860
N1666       N  0.81583746  0.74555426  0.59153521    -0.88810
H1667       H  0.80686471  0.92698359  0.61393950     0.35240
H1668       H  0.75902049  0.88655472  0.64320088     0.40330
H1669       H  0.80234172  0.72699210  0.55915877     0.39950
H1670       H  0.79621106  0.72301894  0.61895103     0.34840
C1671       C  0.68508779  0.72168855  0.56064334    -0.26890
C1672       C  0.70684709  0.70256037  0.53279071    -0.14960
C1673       C  0.69521766  0.65624229  0.53976127     0.35670
C1674       C  0.66074487  0.62946165  0.57273558    -0.26340
C1675       C  0.64007057  0.64884087  0.60140012    -0.15580
C1676       C  0.65310946  0.69585425  0.59620051     0.36750
N1677       N  0.63187884  0.71640789  0.62467403    -0.89830
H1678       H  0.69164266  0.75634675  0.55340721     0.17870
H1679       H  0.65029354  0.59315920  0.57650737     0.17860
N1680       N  0.71821679  0.63640995  0.01321613    -0.88860
H1681       H  0.64242544  0.75008938  0.61314877     0.35240
H1682       H  0.64562617  0.71975275  0.66026081     0.40330
H1683       H  0.75460214  0.65464848  0.02283340     0.39950
H1684       H  0.70625476  0.60236219  0.02420522     0.34840
C1685       C  0.88639761  0.84259877  0.93375002    -0.26890
C1686       C  0.87021328  0.86195128  0.89794441    -0.14960
C1687       C  0.82196022  0.85063186  0.89504731     0.35670
C1688       C  0.79090229  0.82084409  0.92954923    -0.26340
C1689       C  0.80752689  0.80196953  0.96583246    -0.15580
C1690       C  0.85513214  0.81174982  0.96718528     0.36750
N1691       N  0.87105401  0.78969337  0.50225755    -0.89830
H1692       H  0.92322166  0.85122017  0.93513975     0.17870
H1693       H  0.75408696  0.81302154  0.92878038     0.17860
N1694       N  0.80503266  0.86983893  0.85752497    -0.88860
H1695       H  0.90699619  0.80064627  0.49861018     0.35240
H1696       H  0.85293461  0.75426253  0.49384727     0.40330
H1697       H  0.82218268  0.90567874  0.86334065     0.39950
H1698       H  0.76851204  0.85763386  0.86029362     0.34840
C1699       C  0.66096255  0.67889732  0.87870106    -0.26890
C1700       C  0.68430860  0.66076699  0.85215233    -0.14960
C1701       C  0.73071300  0.67108182  0.86940758     0.35670
C1702       C  0.74976720  0.69534370  0.91456848    -0.26340
C1703       C  0.72375949  0.71017001  0.94246375    -0.15580
C1704       C  0.67977016  0.70286165  0.92250735     0.36750
N1705       N  0.65244691  0.71887864  0.94674750    -0.89830
H1706       H  0.62572336  0.67195624  0.86662077     0.17870
H1707       H  0.78438116  0.70163444  0.92833224     0.17860
N1708       N  0.75991402  0.65934878  0.84152384    -0.88860
H1709       H  0.63774574  0.69843715  0.97699871     0.35240
H1710       H  0.67447435  0.75363846  0.95688363     0.40330
H1711       H  0.74218671  0.64254466  0.80911431     0.39950
H1712       H  0.76653418  0.63623764  0.86151933     0.34840
C1713       C  0.82558521  0.52671332  0.54112974    -0.26890
C1714       C  0.79310006  0.98588418  0.51687623    -0.14960
C1715       C  0.80740455  0.95213646  0.50931144     0.35670
C1716       C  0.85125665  0.95866727  0.53000259    -0.26340
C1717       C  0.88352375  0.50028444  0.55420341    -0.15580
C1718       C  0.87099931  0.53529674  0.55577453     0.36750
N1719       N  0.90373687  0.57957856  0.57585875    -0.89830
H1720       H  0.81762468  0.55462348  0.54448781     0.17870
H1721       H  0.85896982  0.93042738  0.52912545     0.17860
N1722       N  0.77773711  0.91043798  0.48223462    -0.88860
H1723       H  0.88663577  0.58570930  0.60388925     0.35240
H1724       H  0.90978478  0.60401702  0.54892538     0.40330
H1725       H  0.74299884  0.89577033  0.49431572     0.39950
H1726       H  0.77781997  0.91850102  0.44571442     0.34840
C1727       C  0.65525175  0.95471587  0.62265664    -0.26890
C1728       C  0.66455209  0.49781756  0.64132576    -0.14960
C1729       C  0.70504000  0.53848274  0.62585204     0.35670
C1730       C  0.72951545  0.53579674  0.58618990    -0.26340
C1731       C  0.71531869  0.99336472  0.56237618    -0.15580
C1732       C  0.68141190  0.95207205  0.58411627     0.36750
N1733       N  0.66834799  0.90820800  0.56186266    -0.89830
H1734       H  0.62493525  0.92335425  0.63524040     0.17870
H1735       H  0.75604991  0.56778821  0.57036045     0.17860
N1736       N  0.72112955  0.58310730  0.64808127    -0.88860
H1737       H  0.64119001  0.88117568  0.58067832     0.35240
H1738       H  0.69807613  0.90357321  0.56529479     0.40330
H1739       H  0.69946026  0.58124460  0.67606111     0.39950
H1740       H  0.71943436  0.60514660  0.62191756     0.34840
C1741       C  0.81598732  0.04099498  0.93274603    -0.26890
C1742       C  0.77034682  0.00216293  0.93562205    -0.14960
C1743       C  0.75327173  0.97048424  0.89611738     0.35670
C1744       C  0.78435918  0.47614908  0.85821905    -0.26340
C1745       C  0.83337814  0.50878000  0.86332628    -0.15580
C1746       C  0.84929490  0.03915485  0.90393648     0.36750
N1747       N  0.89860699  0.06302499  0.92048508    -0.89830
H1748       H  0.82893547  0.06725793  0.96101503     0.17870
H1749       H  0.77172672  0.45172379  0.82806859     0.17860
N1750       N  0.70592910  0.93157624  0.89574931    -0.88860
H1751       H  0.90620014  0.03824307  0.93541513     0.35240
H1752       H  0.90407201  0.58546485  0.94942411     0.40330
H1753       H  0.70242661  0.91192386  0.92661806     0.39950
H1754       H  0.70118153  0.91010575  0.86614396     0.34840
C1755       C  0.63811590  0.98846378  0.99892665    -0.26890
C1756       C  0.68564641  0.00785634  0.98277100    -0.14960
C1757       C  0.70114653  0.04608470  0.95156694     0.35670
C1758       C  0.66806221  0.05746432  0.93081000    -0.26340
C1759       C  0.61964085  0.03343186  0.94221356    -0.15580
C1760       C  0.60690604  0.00407013  0.98193059     0.36750
N1761       N  0.56558033  0.99395905  0.50851179    -0.89830
H1762       H  0.62506808  0.96227773  0.52635749     0.17870
H1763       H  0.67948776  0.58273950  0.90228682     0.17860
N1764       N  0.75033460  0.07478852  0.94181762    -0.88860
H1765       H  0.54090185  0.95900132  0.50475691     0.35240
H1766       H  0.54915821  0.01216920  0.99459532     0.40330
H1767       H  0.76097502  0.10895068  0.95166128     0.39950
H1768       H  0.75367085  0.57360855  0.90444129     0.34840
C1769       C  0.97928625  0.86815305  0.55307206    -0.26890
C1770       C  0.97948031  0.85657214  0.60185608    -0.14960
C1771       C  0.49858611  0.82789422  0.61543227     0.35670
C1772       C  0.51209078  0.80778614  0.57890416    -0.26340
C1773       C  0.00595413  0.81514598  0.52929761    -0.15580
C1774       C  0.99784971  0.85253724  0.51846296     0.36750
N1775       N  0.01775833  0.88255802  0.97822412    -0.89830
H1776       H  0.96995103  0.89426190  0.54233205     0.17870
H1777       H  0.52849452  0.78746613  0.58968919     0.17860
N1778       N  0.50565700  0.82049893  0.66576167    -0.88860
H1779       H  0.99772704  0.86992352  0.94618658     0.35240
H1780       H  0.05364935  0.89219953  0.97546093     0.40330
H1781       H  0.53181997  0.85221347  0.68081964     0.39950
H1782       H  0.51916780  0.79772985  0.66934429     0.34840
C1783       C  0.01506609  0.69237024  0.55630235    -0.26890
C1784       C  0.98660980  0.71241690  0.54564021    -0.14960
C1785       C  0.94967755  0.70295288  0.57812147     0.35670
C1786       C  0.94567702  0.67780554  0.62191046    -0.26340
C1787       C  0.97491538  0.65770853  0.63145820    -0.15580
C1788       C  0.00740898  0.66309035  0.59566977     0.36750
N1789       N  0.02891421  0.63435483  0.59608923    -0.89830
H1790       H  0.04187204  0.69656316  0.53162644     0.17870
H1791       H  0.91845536  0.67224317  0.64700671     0.17860
N1792       N  0.41551961  0.71744458  0.56623566    -0.88860
H1793       H  0.05288813  0.64340475  0.56826540     0.35240
H1794       H  0.00168330  0.60094966  0.58674005     0.40330
H1795       H  0.41554876  0.73777935  0.59494652     0.39950
H1796       H  0.38177374  0.68783710  0.56366736     0.34840
C1797       C  0.97676293  0.81764074  0.86513985    -0.26890
C1798       C  0.52244817  0.85179746  0.85075273    -0.14960
C1799       C  0.56247020  0.85485137  0.87679364     0.35670
C1800       C  0.55617895  0.83077362  0.92078347    -0.26340
C1801       C  0.51043258  0.80076546  0.93800887    -0.15580
C1802       C  0.97025426  0.79229353  0.90811720     0.36750
N1803       N  0.92295050  0.76374119  0.92497607    -0.89830
H1804       H  0.94522455  0.81350870  0.84534053     0.17870
H1805       H  0.58745581  0.83803747  0.94308963     0.17860
N1806       N  0.60965299  0.88092320  0.85930303    -0.88860
H1807       H  0.89751192  0.76468157  0.90105708     0.35240
H1808       H  0.91547912  0.72956409  0.92467799     0.40330
H1809       H  0.60927527  0.89354849  0.82466430     0.39950
H1810       H  0.62162212  0.85720742  0.85456974     0.34840
C1811       C  0.55228697  0.70102138  0.90365648    -0.26890
C1812       C  0.51217582  0.66551230  0.87958273    -0.14960
C1813       C  0.96688730  0.65941770  0.88801139     0.35670
C1814       C  0.96108472  0.68065228  0.92882961    -0.26340
C1815       C  0.50103508  0.71398060  0.95555147    -0.15580
C1816       C  0.54712854  0.72609224  0.94118240     0.36750
N1817       N  0.58827320  0.76253787  0.96620900    -0.89830
H1818       H  0.58716419  0.70913658  0.89292847     0.17870
H1819       H  0.92559474  0.67116949  0.93958283     0.17860
N1820       N  0.92751195  0.63240355  0.85452124    -0.88860
H1821       H  0.61234627  0.78365904  0.94055230     0.35240
H1822       H  0.60465671  0.74800873  0.98759392     0.40330
H1823       H  0.93607528  0.64853234  0.82084133     0.39950
H1824       H  0.89707798  0.63315165  0.86486680     0.34840
loop_ 
_geom_bond_atom_site_label_1 
_geom_bond_atom_site_label_2 
_geom_bond_distance 
_geom_bond_site_symmetry_2 
_ccdc_geom_bond_type 
C1          C188   1.533   1_556  S
C1         C1359   1.487       .  S
C1         C1142   1.385       .  D
C2          C205   1.522       .  S
C2         C1317   1.513       .  S
C2         C1141   1.385   1_455  D
C3          C160   1.520       .  S
C3          C363   1.502       .  S
C3            C4   1.392       .  D
C4          C146   1.508       .  S
C4          C346   1.510       .  S
C5           C93   1.472       .  S
C5          C290   1.520       .  S
C5            C6   1.369       .  D
C6          C107   1.525       .  S
C6          C304   1.485       .  S
O7           C18   1.286       .  A
O7          Eu43   2.439       .  S
O8           C19   1.289       .  A
O8          Eu42   2.453       .  S
O9           C20   1.284       .  A
O9          Eu15   2.419       .  S
O10          C21   1.305       .  A
O10        Eu927   2.545   1_455  S
O11          C21   1.277       .  A
O11         Eu45   2.352       .  S
O12          C20   1.301       .  A
O12         Eu44   2.518       .  S
O13          C19   1.289       .  A
O13        Eu471   2.450       .  S
O14         C930   1.293       .  A
O14         Eu15   2.467       .  S
Eu15        O922   2.545       .  S
Eu15        O469   2.450   1_545  S
Eu15         O17   2.374       .  S
Eu15        O937   2.311       .  S
Eu15        O472   2.342   1_545  S
Eu15        O479   2.378   1_545  S
O16         Eu42   2.346       .  S
O16        Eu471   2.342       .  S
O16       Eu1413   2.349       .  S
O17         Eu44   2.355       .  S
O17        Eu955   2.365       .  S
C18         O926   1.293   1_455  A
C18         C216   1.463       .  S
C19          C90   1.459       .  S
C20         C149   1.489       .  S
C21         C619   1.478       .  S
H22          O23   0.965       .  S
O23         Eu42   2.362       .  S
O23        Eu471   2.378       .  S
O23        Eu500   2.357       .  S
H24          O25   0.961       .  S
O25         Eu43   2.337       .  S
O25         Eu45   2.360       .  S
O25        Eu927   2.311   1_455  S
O26          C49   1.292       .  A
O26         Eu42   2.480       .  S
O27          C50   1.288       .  A
O27         Eu43   2.444       .  S
O28          C51   1.306       .  A
O28        Eu500   2.561       .  S
O29          C52   1.307       .  A
O29        Eu501   2.556       .  S
O30          C53   1.305       .  A
O30         Eu45   2.551       .  S
O31          C54   1.312       .  A
O31         Eu44   2.588       .  S
O32          C55   1.313       .  A
O32        Eu958   2.587       .  S
O33          C56   1.297   1_565  A
O33         Eu46   2.489   1_565  S
O34          C55   1.276       .  A
O34         Eu44   2.345       .  S
O35          C56   1.294       .  A
O35         Eu45   2.475       .  S
O36          C51   1.283       .  A
O36         Eu42   2.411       .  S
O37         C966   1.292   1_455  A
O37         Eu43   2.463       .  S
O38          C53   1.294       .  A
O38         Eu43   2.464       .  S
O39         C964   1.281       .  A
O39         Eu42   2.402       .  S
O40         C961   1.280       .  A
O40        Eu502   2.374   1_655  S
O41          C50   1.287       .  A
O41         Eu46   2.419       .  S
Eu42         O48   2.326       .  S
Eu42        O972   2.350       .  S
Eu43         O47   2.352       .  S
Eu43         O58   2.333   1_455  S
Eu43        O929   2.365   1_455  S
Eu44        O484   2.561   1_545  S
Eu44        O479   2.357   1_545  S
Eu44        O970   2.357       .  S
Eu44        O504   2.352   1_545  S
Eu45        O485   2.556   1_545  S
Eu45         O47   2.360       .  S
Eu45       O1384   2.349   1_545  S
Eu45        O516   2.350   1_545  S
Eu46        O944   2.587   1_455  S
Eu46        O496   2.374   1_445  S
Eu46         O47   2.365       .  S
Eu46         O58   2.307   1_455  S
Eu46        O516   2.369   1_545  S
Eu46       O1416   2.327   1_445  S
O48        Eu500   2.352       .  S
O48       Eu1414   2.327       .  S
C49         O952   1.280       .  A
C49         C174   1.467       .  S
C50          C79   1.465       .  S
C51          C65   1.518       .  S
C52         O951   1.281   1_455  A
C52         C202   1.509       .  S
C53         C104   1.512       .  S
C54         O949   1.292       .  A
C54         C191   1.521       .  S
C55         C121   1.485       .  S
C56         C132   1.484   1_545  S
H57          O58   0.959       .  S
O58        Eu956   2.357       .  S
H59          O60   0.965       .  S
O60        Eu954   2.350   1_455  S
O60        Eu501   2.350       .  S
O60        Eu502   2.369       .  S
C61          C62   1.410       .  A
C61          C66   1.413       .  A
C61          H68   1.078       .  S
C62         C233   1.520       .  S
C62          C63   1.416       .  A
C63          C64   1.407       .  A
C63          N70   1.437       .  S
C64          C65   1.419       .  A
C64          H69   1.083       .  S
C65          C66   1.417       .  A
C66          N67   1.432       .  S
N67          H71   1.041       .  S
N67          H72   1.045       .  S
N70          H73   1.039       .  S
N70          H74   1.046       .  S
C75          C76   1.408       .  A
C75          C80   1.398       .  A
C75          H82   1.080       .  S
C76         C234   1.485   1_554  S
C76          C77   1.404       .  A
C77          C78   1.395       .  A
C77         N312   1.434       .  S
C78          C79   1.401       .  A
C78          H83   1.084       .  S
C79          C80   1.409       .  A
C80          N81   1.438       .  S
N81          H85   1.046       .  S
N81          H86   1.045       .  S
N84         C305   1.434       .  S
N84          H87   1.044       .  S
N84          H88   1.044       .  S
C89          C90   1.394       .  A
C89          C94   1.398       .  A
C89          H96   1.075       .  S
C90          C91   1.409       .  A
C91          C92   1.403       .  A
C91          N98   1.438       .  S
C92          C93   1.401       .  A
C92          H97   1.083       .  S
C93          C94   1.404       .  A
C94         N323   1.435       .  S
N95         C322   1.435   1_554  S
N95          H99   1.039   1_554  S
N95         H100   1.045   1_554  S
N98         H101   1.045       .  S
N98         H102   1.046       .  S
C103        C104   1.403       .  A
C103        C108   1.394       .  A
C103        H110   1.081       .  S
C104        C105   1.423       .  A
C105        C106   1.430       .  A
C105        N112   1.435       .  S
C106        C107   1.417       .  A
C106        H111   1.083       .  S
C107        C108   1.406       .  A
C108        N109   1.423       .  S
N109        H113   1.042       .  S
N109        H114   1.045       .  S
N112        H115   1.044       .  S
N112        H116   1.042       .  S
C117        C122   1.391       .  A
C117        C574   1.392   1_545  A
C117        H124   1.083       .  S
C118        C232   1.510   1_554  S
C118        C119   1.427       .  A
C118        C573   1.392       .  A
C119        C120   1.418       .  A
C119        N126   1.428   1_554  S
C120        C577   1.405       .  A
C120        H125   1.083       .  S
C121        C122   1.409       .  A
C121        C576   1.405   1_545  A
C122        N123   1.419       .  S
N123        H127   1.045       .  S
N123        H128   1.046       .  S
N126        H129   1.045       .  S
N126        H130   1.041       .  S
C131        C136   1.414       .  A
C131        C588   1.407       .  A
C131        H138   1.084       .  S
C132        C133   1.415   1_565  A
C132        C587   1.407       .  A
C133        C134   1.404       .  A
C133        N140   1.439       .  S
C134        C591   1.407   1_545  A
C134        H139   1.084       .  S
C135        C231   1.502       .  S
C135        C136   1.411       .  A
C135        C590   1.407       .  A
C136        N137   1.436       .  S
N137        H141   1.046       .  S
N137        H142   1.045       .  S
N140        H143   1.044       .  S
N140        H144   1.043       .  S
C145        C146   1.402       .  A
C145        C150   1.388       .  A
C145        H152   1.081       .  S
C146        C147   1.413       .  A
C147        C604   1.425       .  A
C147        N154   1.431       .  S
C148        C149   1.409   1_565  A
C148        C603   1.425       .  A
C148        H153   1.083       .  S
C149        C606   1.413       .  A
C150        C605   1.413       .  A
C150        N151   1.439       .  S
N151        H155   1.045       .  S
N151        H612   1.045       .  S
N154        H157   1.044       .  S
N154        H158   1.045       .  S
H156        N607   1.045       .  S
C159        C160   1.428       .  A
C159        C164   1.407       .  A
C159        H394   1.076       .  S
C160        C161   1.411       .  A
C161        C162   1.399       .  A
C161        N168   1.426       .  S
C162        C163   1.407       .  A
C162        H623   1.080       .  S
C163        C477   1.478       .  S
C163        C164   1.394       .  A
C164        N393   1.436       .  S
N165        C392   1.436   1_554  S
N165        H169   1.036       .  S
N165        H398   1.045   1_554  S
H166        C387   1.076   1_554  S
H167        C618   1.080       .  S
N168        H171   1.044       .  S
N168        H628   1.045       .  S
H170        N393   1.045       .  S
H172        N624   1.045       .  S
C173        C174   1.398       .  A
C173        C178   1.379       .  A
C173        H180   1.085       .  S
C174       C1087   1.409       .  A
C175        C176   1.410   1_655  A
C175       C1086   1.409       .  A
C175        N182   1.438   1_655  S
C176       C1089   1.412       .  A
C176        H181   1.078       .  S
C177       C1142   1.513   1_554  S
C177        C178   1.417       .  A
C177       C1088   1.412       .  A
C178        N407   1.430   1_554  S
N179        C406   1.430       .  S
N179        H183   1.033       .  S
N179        H184   1.044       .  S
N182        H185   1.046       .  S
N182        H186   1.046       .  S
C187        C188   1.398       .  A
C187        C192   1.397       .  A
C187        H194   1.076       .  S
C188        C189   1.426       .  A
C189        C190   1.436       .  A
C189       N1108   1.431       .  S
C190        C191   1.416       .  A
C190        H195   1.083       .  S
C191        C192   1.415       .  A
C192        N193   1.431       .  S
N193        H197   1.045       .  S
N193        H198   1.044       .  S
N196       C1101   1.431       .  S
N196        H199   1.045       .  S
N196        H200   1.045       .  S
C201        C206   1.410       .  A
C201       C1114   1.415       .  A
C201        H208   1.083       .  S
C202        C203   1.412       .  A
C202       C1113   1.415   1_455  A
C203        C204   1.413       .  A
C203        N210   1.431       .  S
C204        C205   1.411       .  A
C204        H209   1.081       .  S
C205       C1118   1.414   1_455  A
C206       C1117   1.414       .  A
C206        N207   1.436       .  S
N207        H211   1.045       .  S
N207        H212   1.037       .  S
N210        H213   1.043       .  S
N210        H214   1.046       .  S
C215        C216   1.393       .  A
C215        C220   1.400       .  A
C215        H222   1.074       .  S
C216       C1129   1.402   1_455  A
C217        C218   1.401       .  A
C217       C1128   1.402       .  A
C217        N224   1.437       .  S
C218       C1131   1.399       .  A
C218        H223   1.081       .  S
C219       C1141   1.487   1_455  S
C219        C220   1.409       .  A
C219       C1130   1.399   1_455  A
C220        N221   1.433       .  S
N221        H225   1.046       .  S
N221        H226   1.041       .  S
N224        H227   1.045       .  S
N224        H228   1.046       .  S
C229        C416   1.533       .  S
C229       C1131   1.487       .  S
C229        C914   1.385       .  D
C230       C1089   1.513   1_556  S
C230        C433   1.522       .  S
C230        C913   1.385   1_455  D
C231        C388   1.520   1_554  S
C231        C232   1.392   1_554  D
C232        C374   1.508       .  S
C233        C321   1.472   1_554  S
C233        C234   1.369   1_554  D
C234        C335   1.525       .  S
O235        C246   1.286       .  A
O235       Eu271   2.439       .  S
O236        C247   1.289       .  A
O236       Eu270   2.453       .  S
O237        C248   1.284       .  A
O237       Eu243   2.419       .  S
O238        C249   1.305       .  A
O238      Eu1155   2.545   1_455  S
O239        C249   1.277       .  A
O239       Eu273   2.352       .  S
O240        C248   1.301       .  A
O240       Eu272   2.518       .  S
O241        C247   1.289       .  A
O241       Eu699   2.450       .  S
O242       C1158   1.293       .  A
O242       Eu243   2.467       .  S
Eu243      O1150   2.545       .  S
Eu243       O697   2.450   1_545  S
Eu243      O1165   2.311       .  S
Eu243       O245   2.374       .  S
Eu243       O700   2.342   1_545  S
Eu243       O707   2.377   1_545  S
O244       Eu699   2.342       .  S
O244      Eu1641   2.349       .  S
O244       Eu270   2.346       .  S
O245      Eu1183   2.365       .  S
O245       Eu272   2.355       .  S
C246       O1154   1.293   1_455  A
C246        C444   1.463       .  S
C247        C318   1.459       .  S
C248        C377   1.489       .  S
C249        C847   1.478       .  S
H250        O251   0.965       .  S
O251       Eu699   2.377       .  S
O251       Eu728   2.357       .  S
O251       Eu270   2.362       .  S
H252        O253   0.961       .  S
O253      Eu1155   2.311   1_455  S
O253       Eu271   2.337       .  S
O253       Eu273   2.360       .  S
O254        C277   1.292       .  A
O254       Eu270   2.480       .  S
O255        C278   1.288       .  A
O255       Eu271   2.444       .  S
O256        C279   1.306       .  A
O256       Eu728   2.561       .  S
O257        C280   1.307       .  A
O257       Eu729   2.556       .  S
O258        C281   1.305       .  A
O258       Eu273   2.551       .  S
O259        C282   1.312       .  A
O259       Eu272   2.588       .  S
O260        C283   1.313       .  A
O260      Eu1186   2.587       .  S
O261        C284   1.297   1_565  A
O261       Eu274   2.489   1_565  S
O262        C283   1.276       .  A
O262       Eu272   2.345       .  S
O263        C284   1.294       .  A
O263       Eu273   2.475       .  S
O264        C279   1.283       .  A
O264       Eu270   2.411       .  S
O265       C1194   1.292   1_455  A
O265       Eu271   2.463       .  S
O266        C281   1.294       .  A
O266       Eu271   2.464       .  S
O267       C1192   1.281       .  A
O267       Eu270   2.402       .  S
O268       C1189   1.280       .  A
O268       Eu730   2.374   1_655  S
O269        C278   1.287       .  A
O269       Eu274   2.419       .  S
Eu270      O1200   2.350       .  S
Eu270       O276   2.326       .  S
Eu271      O1157   2.365   1_455  S
Eu271       O275   2.352       .  S
Eu271       O286   2.334   1_455  S
Eu272       O712   2.561   1_545  S
Eu272       O707   2.357   1_545  S
Eu272      O1198   2.357       .  S
Eu272       O732   2.352   1_545  S
Eu273       O713   2.556   1_545  S
Eu273      O1612   2.349   1_545  S
Eu273       O275   2.360       .  S
Eu273       O744   2.350   1_545  S
Eu274      O1172   2.587   1_455  S
Eu274       O724   2.374   1_445  S
Eu274       O275   2.365       .  S
Eu274       O286   2.307   1_455  S
Eu274       O744   2.369   1_545  S
Eu274      O1644   2.327   1_445  S
O276       Eu728   2.352       .  S
O276      Eu1642   2.327       .  S
C277       O1180   1.280       .  A
C277        C402   1.467       .  S
C278        C307   1.465       .  S
C279        C293   1.518       .  S
C280       O1179   1.281   1_455  A
C280        C430   1.509       .  S
C281        C332   1.512       .  S
C282       O1177   1.292       .  A
C282        C419   1.521       .  S
C283        C349   1.485       .  S
C284        C360   1.484   1_545  S
H285        O286   0.958       .  S
O286      Eu1184   2.357       .  S
H287        O288   0.965       .  S
O288      Eu1182   2.350   1_455  S
O288       Eu729   2.350       .  S
O288       Eu730   2.369       .  S
C289        C290   1.410       .  A
C289        C294   1.413       .  A
C289        H296   1.078       .  S
C290        C291   1.416       .  A
C291        C292   1.407       .  A
C291        N298   1.437       .  S
C292        C293   1.419       .  A
C292        H297   1.083       .  S
C293        C294   1.417       .  A
C294        N295   1.432       .  S
N295        H299   1.041       .  S
N295        H300   1.045       .  S
N298        H301   1.039       .  S
N298        H302   1.046       .  S
C303        C304   1.408       .  A
C303        C308   1.398       .  A
C303        H310   1.080       .  S
C304        C305   1.404       .  A
C305        C306   1.395       .  A
C306        C307   1.401       .  A
C306        H311   1.084       .  S
C307        C308   1.409       .  A
C308        N309   1.438       .  S
N309        H313   1.046       .  S
N309        H314   1.045       .  S
N312        H315   1.044       .  S
N312        H316   1.044       .  S
C317        C318   1.394       .  A
C317        C322   1.398       .  A
C317        H324   1.075       .  S
C318        C319   1.409       .  A
C319        C320   1.403       .  A
C319        N326   1.438       .  S
C320        C321   1.401       .  A
C320        H325   1.083       .  S
C321        C322   1.404       .  A
N323        H327   1.039       .  S
N323        H328   1.045       .  S
N326        H329   1.045       .  S
N326        H330   1.046       .  S
C331        C332   1.403       .  A
C331        C336   1.394       .  A
C331        H338   1.081       .  S
C332        C333   1.423       .  A
C333        C334   1.430       .  A
C333        N340   1.435       .  S
C334        C335   1.417       .  A
C334        H339   1.083       .  S
C335        C336   1.406       .  A
C336        N337   1.423       .  S
N337        H341   1.042       .  S
N337        H342   1.045       .  S
N340        H343   1.044       .  S
N340        H344   1.042       .  S
C345        C802   1.392   1_545  A
C345        C350   1.391       .  A
C345        H352   1.083       .  S
C346        C801   1.392       .  A
C346        C347   1.427       .  A
C347        C348   1.418       .  A
C347        N354   1.428       .  S
C348        C805   1.405       .  A
C348        H353   1.083       .  S
C349        C804   1.405   1_545  A
C349        C350   1.409       .  A
C350        N351   1.419       .  S
N351        H355   1.045       .  S
N351        H356   1.046       .  S
N354        H357   1.045       .  S
N354        H358   1.041       .  S
C359        C816   1.407       .  A
C359        C364   1.414       .  A
C359        H366   1.084       .  S
C360        C815   1.407       .  A
C360        C361   1.415   1_565  A
C361        C362   1.404       .  A
C361        N368   1.439       .  S
C362        C819   1.407   1_545  A
C362        H367   1.084       .  S
C363        C818   1.407       .  A
C363        C364   1.411       .  A
C364        N365   1.436       .  S
N365        H369   1.046       .  S
N365        H370   1.045       .  S
N368        H371   1.044       .  S
N368        H372   1.043       .  S
C373        C374   1.402       .  A
C373        C378   1.388       .  A
C373        H380   1.081       .  S
C374        C375   1.413       .  A
C375        C832   1.425       .  A
C375        N382   1.431       .  S
C376        C831   1.425       .  A
C376        C377   1.409   1_565  A
C376        H381   1.083       .  S
C377        C834   1.413       .  A
C378        C833   1.413       .  A
C378        N379   1.439       .  S
N379        H383   1.045       .  S
N379        H840   1.045       .  S
N382        H385   1.044       .  S
N382        H386   1.045       .  S
H384        N835   1.045       .  S
C387        C388   1.428       .  A
C387        C392   1.407       .  A
C388        C389   1.411       .  A
C389        C390   1.399       .  A
C389        N396   1.426       .  S
C390        C391   1.407       .  A
C390        H851   1.080       .  S
C391        C705   1.478       .  S
C391        C392   1.394       .  A
N393        H397   1.036       .  S
H395        C846   1.080       .  S
N396        H399   1.044       .  S
N396        H856   1.045       .  S
H400        N852   1.045       .  S
C401        C402   1.398       .  A
C401        C406   1.379       .  A
C401        H408   1.085       .  S
C402       C1315   1.409       .  A
C403       C1314   1.409       .  A
C403        C404   1.410   1_655  A
C403        N410   1.438   1_655  S
C404       C1317   1.412       .  A
C404        H409   1.078       .  S
C405        C914   1.513       .  S
C405       C1316   1.412       .  A
C405        C406   1.417       .  A
N407        H411   1.033       .  S
N407        H412   1.044       .  S
N410        H413   1.046       .  S
N410        H414   1.046       .  S
C415        C416   1.398       .  A
C415        C420   1.397       .  A
C415        H422   1.076       .  S
C416        C417   1.426       .  A
C417        C418   1.436       .  A
C417       N1336   1.431       .  S
C418        C419   1.416       .  A
C418        H423   1.083       .  S
C419        C420   1.415       .  A
C420        N421   1.431       .  S
N421        H425   1.045       .  S
N421        H426   1.044       .  S
N424       C1329   1.431       .  S
N424        H427   1.045       .  S
N424        H428   1.045       .  S
C429       C1342   1.415       .  A
C429        C434   1.410       .  A
C429        H436   1.083       .  S
C430       C1341   1.415   1_455  A
C430        C431   1.412       .  A
C431        C432   1.413       .  A
C431        N438   1.431       .  S
C432        C433   1.411       .  A
C432        H437   1.081       .  S
C433       C1346   1.414   1_455  A
C434       C1345   1.414       .  A
C434        N435   1.436       .  S
N435        H439   1.045       .  S
N435        H440   1.037       .  S
N438        H441   1.043       .  S
N438        H442   1.046       .  S
C443        C444   1.393       .  A
C443        C448   1.400       .  A
C443        H450   1.074       .  S
C444       C1357   1.402   1_455  A
C445       C1356   1.402       .  A
C445        C446   1.401       .  A
C445        N452   1.437       .  S
C446       C1359   1.399       .  A
C446        H451   1.081       .  S
C447        C913   1.487   1_455  S
C447       C1358   1.399   1_455  A
C447        C448   1.409       .  A
C448        N449   1.433       .  S
N449        H453   1.046       .  S
N449        H454   1.041       .  S
N452        H455   1.045       .  S
N452        H456   1.046       .  S
C457        C644   1.533   1_556  S
C457       C1815   1.487       .  S
C457       C1598   1.385       .  D
C458       C1773   1.513       .  S
C458        C661   1.522       .  S
C458       C1597   1.385   1_455  D
C459        C819   1.502       .  S
C459        C616   1.520   1_565  S
C459        C460   1.392       .  D
C460        C802   1.510       .  S
C460        C602   1.508   1_565  S
C461        C746   1.520       .  S
C461        C549   1.472       .  S
C461        C462   1.369       .  D
C462        C760   1.485       .  S
C462        C563   1.525       .  S
O463        C474   1.286       .  A
O463       Eu499   2.439       .  S
O464        C475   1.289       .  A
O464       Eu498   2.453       .  S
O465        C476   1.284       .  A
O465       Eu471   2.419       .  S
O466        C477   1.305       .  A
O466      Eu1383   2.545   1_455  S
O467        C477   1.277       .  A
O467       Eu501   2.352       .  S
O468        C476   1.301       .  A
O468       Eu500   2.518       .  S
O469        C475   1.289       .  A
O470       C1386   1.293       .  A
O470       Eu471   2.467       .  S
Eu471      O1378   2.545       .  S
Eu471      O1393   2.311       .  S
Eu471       O473   2.374       .  S
O472       Eu957   2.349   1_565  S
O472       Eu498   2.346       .  S
O473      Eu1411   2.365       .  S
O473       Eu500   2.355       .  S
C474       O1382   1.293   1_455  A
C474        C672   1.463       .  S
C475        C546   1.459       .  S
C476        C605   1.489       .  S
H478        O479   0.965       .  S
O479       Eu498   2.362       .  S
H480        O481   0.961       .  S
O481      Eu1383   2.311   1_455  S
O481       Eu499   2.337       .  S
O481       Eu501   2.360       .  S
O482        C505   1.292       .  A
O482       Eu498   2.480       .  S
O483        C506   1.288       .  A
O483       Eu499   2.444       .  S
O484        C507   1.306       .  A
O485        C508   1.307       .  A
O486        C509   1.305       .  A
O486       Eu501   2.551       .  S
O487        C510   1.312       .  A
O487       Eu500   2.588       .  S
O488        C511   1.313       .  A
O488      Eu1414   2.587       .  S
O489        C512   1.297       .  A
O489       Eu502   2.489       .  S
O490        C511   1.276       .  A
O490       Eu500   2.345       .  S
O491        C512   1.294       .  A
O491       Eu501   2.475       .  S
O492        C507   1.283       .  A
O492       Eu498   2.411       .  S
O493       C1422   1.292   1_455  A
O493       Eu499   2.463       .  S
O494        C509   1.294       .  A
O494       Eu499   2.464       .  S
O495       C1420   1.281       .  A
O495       Eu498   2.402       .  S
O496       C1417   1.280       .  A
O497        C506   1.287       .  A
O497       Eu502   2.419       .  S
Eu498      O1428   2.350       .  S
Eu498       O504   2.326       .  S
Eu499      O1385   2.365   1_455  S
Eu499       O503   2.352       .  S
Eu499       O514   2.333   1_455  S
Eu500      O1426   2.357       .  S
Eu501       O928   2.349       .  S
Eu501       O503   2.360       .  S
Eu502      O1400   2.587   1_455  S
Eu502       O503   2.365       .  S
Eu502       O514   2.307   1_455  S
Eu502       O960   2.327   1_455  S
O504       Eu958   2.327   1_565  S
C505       O1408   1.280       .  A
C505        C630   1.467       .  S
C506        C535   1.465       .  S
C507        C521   1.518       .  S
C508       O1407   1.281   1_455  A
C508        C658   1.509       .  S
C509        C560   1.512       .  S
C510       O1405   1.292       .  A
C510        C647   1.521       .  S
C511        C577   1.485       .  S
C512        C588   1.484       .  S
H513        O514   0.959       .  S
O514      Eu1412   2.357       .  S
H515        O516   0.965       .  S
O516      Eu1410   2.350   1_455  S
C517        C518   1.410       .  A
C517        C522   1.413       .  A
C517        H524   1.078       .  S
C518        C689   1.520       .  S
C518        C519   1.416       .  A
C519        C520   1.407       .  A
C519        N526   1.437       .  S
C520        C521   1.419       .  A
C520        H525   1.083       .  S
C521        C522   1.417       .  A
C522        N523   1.432       .  S
N523        H527   1.041       .  S
N523        H528   1.045       .  S
N526        H529   1.039       .  S
N526        H530   1.046       .  S
C531        C532   1.408       .  A
C531        C536   1.398       .  A
C531        H538   1.080       .  S
C532        C690   1.485   1_554  S
C532        C533   1.404       .  A
C533        C534   1.395       .  A
C533        N768   1.434       .  S
C534        C535   1.401       .  A
C534        H539   1.084       .  S
C535        C536   1.409       .  A
C536        N537   1.438       .  S
N537        H541   1.046       .  S
N537        H542   1.045       .  S
N540        C761   1.434       .  S
N540        H543   1.044       .  S
N540        H544   1.044       .  S
C545        C546   1.394       .  A
C545        C550   1.398       .  A
C545        H552   1.075       .  S
C546        C547   1.409       .  A
C547        C548   1.403       .  A
C547        N554   1.438       .  S
C548        C549   1.401       .  A
C548        H553   1.083       .  S
C549        C550   1.404       .  A
C550        N779   1.435       .  S
N551        C778   1.435   1_554  S
N551        H555   1.039   1_554  S
N551        H556   1.045   1_554  S
N554        H557   1.045       .  S
N554        H558   1.046       .  S
C559        C560   1.403       .  A
C559        C564   1.394       .  A
C559        H566   1.081       .  S
C560        C561   1.423       .  A
C561        C562   1.430       .  A
C561        N568   1.435       .  S
C562        C563   1.417       .  A
C562        H567   1.083       .  S
C563        C564   1.406       .  A
C564        N565   1.423       .  S
N565        H569   1.042       .  S
N565        H570   1.045       .  S
N568        H571   1.044       .  S
N568        H572   1.042       .  S
C573        C578   1.391       .  A
C573        H580   1.083       .  S
C574        C688   1.510   1_554  S
C574        C575   1.427       .  A
C575        C576   1.418       .  A
C575        N582   1.428   1_554  S
C576        H581   1.083       .  S
C577        C578   1.409       .  A
C578        N579   1.419       .  S
N579        H583   1.045       .  S
N579        H584   1.046       .  S
N582        H585   1.045       .  S
N582        H586   1.041       .  S
C587        C592   1.414       .  A
C587        H594   1.084       .  S
C588        C589   1.415       .  A
C589        C590   1.404       .  A
C589        N596   1.439       .  S
C590        H595   1.084       .  S
C591        C687   1.502       .  S
C591        C592   1.411       .  A
C592        N593   1.436       .  S
N593        H597   1.046       .  S
N593        H598   1.045       .  S
N596        H599   1.044       .  S
N596        H600   1.043       .  S
C601        C602   1.402       .  A
C601        C606   1.388       .  A
C601        H608   1.081       .  S
C602        C603   1.413   1_545  A
C603        N610   1.431       .  S
C604        C605   1.409       .  A
C604        H609   1.083       .  S
C606        N607   1.439       .  S
N607        H611   1.045       .  S
N610        H613   1.044       .  S
N610        H614   1.045       .  S
C615        C616   1.428   1_565  A
C615        C620   1.407   1_565  A
C615        H850   1.076       .  S
C616        C617   1.411       .  A
C617        C618   1.399       .  A
C617        N624   1.426       .  S
C618        C619   1.407       .  A
C619        C620   1.394       .  A
C620        N849   1.436   1_545  S
N621        C848   1.436   1_564  S
N621        H625   1.036       .  S
N621        H854   1.045   1_564  S
H622        C843   1.076   1_554  S
N624        H627   1.044       .  S
H626        N849   1.045   1_545  S
C629        C630   1.398       .  A
C629        C634   1.379       .  A
C629        H636   1.085       .  S
C630       C1543   1.409       .  A
C631       C1542   1.409       .  A
C631        C632   1.410   1_655  A
C631        N638   1.438   1_655  S
C632       C1545   1.412       .  A
C632        H637   1.078       .  S
C633       C1598   1.513   1_554  S
C633       C1544   1.412       .  A
C633        C634   1.417       .  A
C634        N863   1.430   1_554  S
N635        C862   1.430       .  S
N635        H639   1.033       .  S
N635        H640   1.044       .  S
N638        H641   1.046       .  S
N638        H642   1.046       .  S
C643        C644   1.398       .  A
C643        C648   1.397       .  A
C643        H650   1.076       .  S
C644        C645   1.426       .  A
C645        C646   1.436       .  A
C645       N1564   1.431       .  S
C646        C647   1.416       .  A
C646        H651   1.083       .  S
C647        C648   1.415       .  A
C648        N649   1.431       .  S
N649        H653   1.045       .  S
N649        H654   1.044       .  S
N652       C1557   1.431       .  S
N652        H655   1.045       .  S
N652        H656   1.045       .  S
C657       C1570   1.415       .  A
C657        C662   1.410       .  A
C657        H664   1.083       .  S
C658       C1569   1.415   1_455  A
C658        C659   1.412       .  A
C659        C660   1.413       .  A
C659        N666   1.431       .  S
C660        C661   1.411       .  A
C660        H665   1.081       .  S
C661       C1574   1.414   1_455  A
C662       C1573   1.414       .  A
C662        N663   1.436       .  S
N663        H667   1.045       .  S
N663        H668   1.037       .  S
N666        H669   1.043       .  S
N666        H670   1.046       .  S
C671        C672   1.393       .  A
C671        C676   1.400       .  A
C671        H678   1.074       .  S
C672       C1585   1.402   1_455  A
C673       C1584   1.402       .  A
C673        C674   1.401       .  A
C673        N680   1.437       .  S
C674       C1587   1.399       .  A
C674        H679   1.081       .  S
C675       C1597   1.487   1_455  S
C675       C1586   1.399   1_455  A
C675        C676   1.409       .  A
C676        N677   1.433       .  S
N677        H681   1.046       .  S
N677        H682   1.041       .  S
N680        H683   1.045       .  S
N680        H684   1.046       .  S
C685        C872   1.533       .  S
C685       C1587   1.487       .  S
C685       C1370   1.385       .  D
C686       C1545   1.513   1_556  S
C686        C889   1.522       .  S
C686       C1369   1.385   1_455  D
C687        C844   1.520   1_564  S
C687        C688   1.392   1_554  D
C688        C830   1.508   1_565  S
C689        C777   1.472   1_554  S
C689        C690   1.369   1_554  D
C690        C791   1.525       .  S
O691        C702   1.286       .  A
O691       Eu727   2.439       .  S
O692        C703   1.289       .  A
O692       Eu726   2.453       .  S
O693        C704   1.284       .  A
O693       Eu699   2.419       .  S
O694        C705   1.305       .  A
O694      Eu1611   2.545   1_455  S
O695        C705   1.277       .  A
O695       Eu729   2.352       .  S
O696        C704   1.301       .  A
O696       Eu728   2.518       .  S
O697        C703   1.289       .  A
O698       C1614   1.293       .  A
O698       Eu699   2.467       .  S
Eu699      O1606   2.545       .  S
Eu699      O1621   2.311       .  S
Eu699       O701   2.374       .  S
O700      Eu1185   2.349   1_565  S
O700       Eu726   2.346       .  S
O701      Eu1639   2.365       .  S
O701       Eu728   2.355       .  S
C702       O1610   1.293   1_455  A
C702        C900   1.463       .  S
C703        C774   1.459       .  S
C704        C833   1.489       .  S
H706        O707   0.965       .  S
O707       Eu726   2.362       .  S
H708        O709   0.961       .  S
O709      Eu1611   2.311   1_455  S
O709       Eu727   2.337       .  S
O709       Eu729   2.360       .  S
O710        C733   1.292       .  A
O710       Eu726   2.480       .  S
O711        C734   1.288       .  A
O711       Eu727   2.444       .  S
O712        C735   1.306       .  A
O713        C736   1.307       .  A
O714        C737   1.305       .  A
O714       Eu729   2.551       .  S
O715        C738   1.312       .  A
O715       Eu728   2.588       .  S
O716        C739   1.313       .  A
O716      Eu1642   2.587       .  S
O717        C740   1.297       .  A
O717       Eu730   2.489       .  S
O718        C739   1.276       .  A
O718       Eu728   2.345       .  S
O719        C740   1.294       .  A
O719       Eu729   2.475       .  S
O720        C735   1.283       .  A
O720       Eu726   2.411       .  S
O721       C1650   1.292   1_455  A
O721       Eu727   2.463       .  S
O722        C737   1.294       .  A
O722       Eu727   2.464       .  S
O723       C1648   1.281       .  A
O723       Eu726   2.402       .  S
O724       C1645   1.280       .  A
O725        C734   1.287       .  A
O725       Eu730   2.419       .  S
Eu726      O1656   2.350       .  S
Eu726       O732   2.326       .  S
Eu727      O1613   2.365   1_455  S
Eu727       O731   2.352       .  S
Eu727       O742   2.334   1_455  S
Eu728      O1654   2.357       .  S
Eu729      O1156   2.349       .  S
Eu729       O731   2.360       .  S
Eu730      O1628   2.587   1_455  S
Eu730       O731   2.365       .  S
Eu730       O742   2.307   1_455  S
Eu730      O1188   2.327   1_455  S
O732      Eu1186   2.327   1_565  S
C733       O1636   1.280       .  A
C733        C858   1.467       .  S
C734        C763   1.465       .  S
C735        C749   1.518       .  S
C736       O1635   1.281   1_455  A
C736        C886   1.509       .  S
C737        C788   1.512       .  S
C738       O1633   1.292       .  A
C738        C875   1.521       .  S
C739        C805   1.485       .  S
C740        C816   1.484       .  S
H741        O742   0.958       .  S
O742      Eu1640   2.357       .  S
H743        O744   0.965       .  S
O744      Eu1638   2.350   1_455  S
C745        C746   1.410       .  A
C745        C750   1.413       .  A
C745        H752   1.078       .  S
C746        C747   1.416       .  A
C747        C748   1.407       .  A
C747        N754   1.437       .  S
C748        C749   1.419       .  A
C748        H753   1.083       .  S
C749        C750   1.417       .  A
C750        N751   1.432       .  S
N751        H755   1.041       .  S
N751        H756   1.045       .  S
N754        H757   1.039       .  S
N754        H758   1.046       .  S
C759        C760   1.408       .  A
C759        C764   1.398       .  A
C759        H766   1.080       .  S
C760        C761   1.404       .  A
C761        C762   1.395       .  A
C762        C763   1.401       .  A
C762        H767   1.084       .  S
C763        C764   1.409       .  A
C764        N765   1.438       .  S
N765        H769   1.046       .  S
N765        H770   1.045       .  S
N768        H771   1.044       .  S
N768        H772   1.044       .  S
C773        C774   1.394       .  A
C773        C778   1.398       .  A
C773        H780   1.075       .  S
C774        C775   1.409       .  A
C775        C776   1.403       .  A
C775        N782   1.438       .  S
C776        C777   1.401       .  A
C776        H781   1.083       .  S
C777        C778   1.404       .  A
N779        H783   1.039       .  S
N779        H784   1.045       .  S
N782        H785   1.045       .  S
N782        H786   1.046       .  S
C787        C788   1.403       .  A
C787        C792   1.394       .  A
C787        H794   1.081       .  S
C788        C789   1.423       .  A
C789        C790   1.430       .  A
C789        N796   1.435       .  S
C790        C791   1.417       .  A
C790        H795   1.083       .  S
C791        C792   1.406       .  A
C792        N793   1.423       .  S
N793        H797   1.042       .  S
N793        H798   1.045       .  S
N796        H799   1.044       .  S
N796        H800   1.042       .  S
C801        C806   1.391       .  A
C801        H808   1.083       .  S
C802        C803   1.427       .  A
C803        C804   1.418       .  A
C803        N810   1.428       .  S
C804        H809   1.083       .  S
C805        C806   1.409       .  A
C806        N807   1.419       .  S
N807        H811   1.045       .  S
N807        H812   1.046       .  S
N810        H813   1.045       .  S
N810        H814   1.041       .  S
C815        C820   1.414       .  A
C815        H822   1.084       .  S
C816        C817   1.415       .  A
C817        C818   1.404       .  A
C817        N824   1.439       .  S
C818        H823   1.084       .  S
C819        C820   1.411       .  A
C820        N821   1.436       .  S
N821        H825   1.046       .  S
N821        H826   1.045       .  S
N824        H827   1.044       .  S
N824        H828   1.043       .  S
C829        C830   1.402       .  A
C829        C834   1.388       .  A
C829        H836   1.081       .  S
C830        C831   1.413   1_545  A
C831        N838   1.431       .  S
C832        C833   1.409       .  A
C832        H837   1.083       .  S
C834        N835   1.439       .  S
N835        H839   1.045       .  S
N838        H841   1.044       .  S
N838        H842   1.045       .  S
C843        C844   1.428   1_565  A
C843        C848   1.407   1_565  A
C844        C845   1.411       .  A
C845        C846   1.399       .  A
C845        N852   1.426       .  S
C846        C847   1.407       .  A
C847        C848   1.394       .  A
N849        H853   1.036       .  S
N852        H855   1.044       .  S
C857        C858   1.398       .  A
C857        C862   1.379       .  A
C857        H864   1.085       .  S
C858       C1771   1.409       .  A
C859       C1770   1.409       .  A
C859        C860   1.410   1_655  A
C859        N866   1.438   1_655  S
C860       C1773   1.412       .  A
C860        H865   1.078       .  S
C861       C1370   1.513       .  S
C861       C1772   1.412       .  A
C861        C862   1.417       .  A
N863        H867   1.033       .  S
N863        H868   1.044       .  S
N866        H869   1.046       .  S
N866        H870   1.046       .  S
C871        C872   1.398       .  A
C871        C876   1.397       .  A
C871        H878   1.076       .  S
C872        C873   1.426       .  A
C873        C874   1.436       .  A
C873       N1792   1.431       .  S
C874        C875   1.416       .  A
C874        H879   1.083       .  S
C875        C876   1.415       .  A
C876        N877   1.431       .  S
N877        H881   1.045       .  S
N877        H882   1.044       .  S
N880       C1785   1.431       .  S
N880        H883   1.045       .  S
N880        H884   1.045       .  S
C885       C1798   1.415       .  A
C885        C890   1.410       .  A
C885        H892   1.083       .  S
C886       C1797   1.415   1_455  A
C886        C887   1.412       .  A
C887        C888   1.413       .  A
C887        N894   1.431       .  S
C888        C889   1.411       .  A
C888        H893   1.081       .  S
C889       C1802   1.414   1_455  A
C890       C1801   1.414       .  A
C890        N891   1.436       .  S
N891        H895   1.045       .  S
N891        H896   1.037       .  S
N894        H897   1.043       .  S
N894        H898   1.046       .  S
C899        C900   1.393       .  A
C899        C904   1.400       .  A
C899        H906   1.074       .  S
C900       C1813   1.402   1_455  A
C901       C1812   1.402       .  A
C901        C902   1.401       .  A
C901        N908   1.437       .  S
C902       C1815   1.399       .  A
C902        H907   1.081       .  S
C903       C1369   1.487   1_455  S
C903       C1814   1.399   1_455  A
C903        C904   1.409       .  A
C904        N905   1.433       .  S
N905        H909   1.046       .  S
N905        H910   1.041       .  S
N908        H911   1.045       .  S
N908        H912   1.046       .  S
C913       C1100   1.533   1_556  S
C914       C1117   1.522       .  S
C915       C1275   1.502       .  S
C915       C1072   1.520       .  S
C915        C916   1.392       .  D
C916       C1258   1.510       .  S
C916       C1058   1.508       .  S
C917       C1202   1.520       .  S
C917       C1005   1.472       .  S
C917        C918   1.369       .  D
C918       C1216   1.485       .  S
C918       C1019   1.525       .  S
O919        C930   1.286       .  A
O919       Eu955   2.439       .  S
O920        C931   1.289       .  A
O920       Eu954   2.453       .  S
O921        C932   1.284       .  A
O921       Eu927   2.419       .  S
O922        C933   1.305       .  A
O923        C933   1.277       .  A
O923       Eu957   2.352       .  S
O924        C932   1.301       .  A
O924       Eu956   2.518       .  S
O925        C931   1.289       .  A
O925      Eu1383   2.450       .  S
O926       Eu927   2.467       .  S
Eu927      O1381   2.450   1_545  S
Eu927       O929   2.374       .  S
Eu927      O1384   2.342   1_645  S
Eu927      O1391   2.378   1_545  S
O928      Eu1383   2.342   1_455  S
O928       Eu954   2.346   1_455  S
O929       Eu956   2.355       .  S
C930       C1128   1.463       .  S
C931       C1002   1.459       .  S
C932       C1061   1.489       .  S
C933       C1531   1.478       .  S
H934        O935   0.965       .  S
O935      Eu1383   2.378       .  S
O935      Eu1412   2.357       .  S
O935       Eu954   2.362       .  S
H936        O937   0.961       .  S
O937       Eu955   2.337       .  S
O937       Eu957   2.360       .  S
O938        C961   1.292       .  A
O938       Eu954   2.480       .  S
O939        C962   1.288       .  A
O939       Eu955   2.444       .  S
O940        C963   1.306       .  A
O940      Eu1412   2.561       .  S
O941        C964   1.307       .  A
O941      Eu1413   2.556       .  S
O942        C965   1.305       .  A
O942       Eu957   2.551       .  S
O943        C966   1.312       .  A
O943       Eu956   2.588       .  S
O944        C967   1.313       .  A
O945        C968   1.297   1_565  A
O945       Eu958   2.489   1_565  S
O946        C967   1.276       .  A
O946       Eu956   2.345       .  S
O947        C968   1.294       .  A
O947       Eu957   2.475       .  S
O948        C963   1.283       .  A
O948       Eu954   2.411       .  S
O949       Eu955   2.463       .  S
O950        C965   1.294       .  A
O950       Eu955   2.464       .  S
O951       Eu954   2.402       .  S
O952      Eu1414   2.374       .  S
O953        C962   1.287       .  A
O953       Eu958   2.419       .  S
Eu954       O960   2.326       .  S
Eu955       O959   2.352       .  S
Eu955       O970   2.333       .  S
Eu956      O1396   2.561   1_545  S
Eu956      O1391   2.357   1_545  S
Eu956      O1416   2.352   1_545  S
Eu957      O1397   2.556   1_545  S
Eu957       O959   2.360       .  S
Eu957      O1428   2.350   1_545  S
Eu958      O1408   2.374   1_545  S
Eu958       O959   2.365       .  S
Eu958       O970   2.307       .  S
Eu958      O1428   2.369   1_545  S
O960      Eu1412   2.352       .  S
C961       C1086   1.467       .  S
C962        C991   1.465       .  S
C963        C977   1.518       .  S
C964       C1114   1.509       .  S
C965       C1016   1.512       .  S
C966       C1103   1.521       .  S
C967       C1033   1.485       .  S
C968       C1044   1.484   1_545  S
H969        O970   0.959       .  S
H971        O972   0.965       .  S
O972      Eu1413   2.350       .  S
O972      Eu1414   2.369       .  S
C973        C974   1.410       .  A
C973        C978   1.413       .  A
C973        H980   1.078       .  S
C974       C1145   1.520       .  S
C974        C975   1.416       .  A
C975        C976   1.407       .  A
C975        N982   1.437       .  S
C976        C977   1.419       .  A
C976        H981   1.083       .  S
C977        C978   1.417       .  A
C978        N979   1.432       .  S
N979        H983   1.041       .  S
N979        H984   1.045       .  S
N982        H985   1.039       .  S
N982        H986   1.046       .  S
C987        C988   1.408       .  A
C987        C992   1.398       .  A
C987        H994   1.080       .  S
C988       C1146   1.485   1_554  S
C988        C989   1.404       .  A
C989        C990   1.395       .  A
C989       N1224   1.434       .  S
C990        C991   1.401       .  A
C990        H995   1.084       .  S
C991        C992   1.409       .  A
C992        N993   1.438       .  S
N993        H997   1.046       .  S
N993        H998   1.045       .  S
N996       C1217   1.434       .  S
N996        H999   1.044       .  S
N996       H1000   1.044       .  S
C1001      C1002   1.394       .  A
C1001      C1006   1.398       .  A
C1001      H1008   1.075       .  S
C1002      C1003   1.409       .  A
C1003      C1004   1.403       .  A
C1003      N1010   1.438       .  S
C1004      C1005   1.401       .  A
C1004      H1009   1.083       .  S
C1005      C1006   1.404       .  A
C1006      N1235   1.435       .  S
N1007      C1234   1.435   1_554  S
N1007      H1011   1.039   1_554  S
N1007      H1012   1.045   1_554  S
N1010      H1013   1.045       .  S
N1010      H1014   1.046       .  S
C1015      C1016   1.403       .  A
C1015      C1020   1.394       .  A
C1015      H1022   1.081       .  S
C1016      C1017   1.423       .  A
C1017      C1018   1.430       .  A
C1017      N1024   1.435       .  S
C1018      C1019   1.417       .  A
C1018      H1023   1.083       .  S
C1019      C1020   1.406       .  A
C1020      N1021   1.423       .  S
N1021      H1025   1.042       .  S
N1021      H1026   1.045       .  S
N1024      H1027   1.044       .  S
N1024      H1028   1.042       .  S
C1029      C1486   1.392   1_545  A
C1029      C1034   1.391       .  A
C1029      H1036   1.083       .  S
C1030      C1144   1.510   1_554  S
C1030      C1485   1.392       .  A
C1030      C1031   1.427       .  A
C1031      C1032   1.418       .  A
C1031      N1038   1.428   1_554  S
C1032      C1489   1.405       .  A
C1032      H1037   1.083       .  S
C1033      C1488   1.405   1_545  A
C1033      C1034   1.409       .  A
C1034      N1035   1.419       .  S
N1035      H1039   1.045       .  S
N1035      H1040   1.046       .  S
N1038      H1041   1.045       .  S
N1038      H1042   1.041       .  S
C1043      C1500   1.407       .  A
C1043      C1048   1.414       .  A
C1043      H1050   1.084       .  S
C1044      C1499   1.407       .  A
C1044      C1045   1.415   1_565  A
C1045      C1046   1.404       .  A
C1045      N1052   1.439       .  S
C1046      C1503   1.407   1_545  A
C1046      H1051   1.084       .  S
C1047      C1143   1.502       .  S
C1047      C1502   1.407       .  A
C1047      C1048   1.411       .  A
C1048      N1049   1.436       .  S
N1049      H1053   1.046       .  S
N1049      H1054   1.045       .  S
N1052      H1055   1.044       .  S
N1052      H1056   1.043       .  S
C1057      C1058   1.402       .  A
C1057      C1062   1.388       .  A
C1057      H1064   1.081       .  S
C1058      C1059   1.413       .  A
C1059      C1516   1.425       .  A
C1059      N1066   1.431       .  S
C1060      C1515   1.425       .  A
C1060      C1061   1.409   1_565  A
C1060      H1065   1.083       .  S
C1061      C1518   1.413       .  A
C1062      C1517   1.413       .  A
C1062      N1063   1.439       .  S
N1063      H1067   1.045       .  S
N1063      H1524   1.045       .  S
N1066      H1069   1.044       .  S
N1066      H1070   1.045       .  S
H1068      N1519   1.045       .  S
C1071      C1072   1.428       .  A
C1071      C1076   1.407       .  A
C1071      H1306   1.076       .  S
C1072      C1073   1.411       .  A
C1073      C1074   1.399       .  A
C1073      N1080   1.426       .  S
C1074      C1075   1.407       .  A
C1074      H1535   1.080       .  S
C1075      C1389   1.478       .  S
C1075      C1076   1.394       .  A
C1076      N1305   1.436       .  S
N1077      C1304   1.436   1_554  S
N1077      H1081   1.036       .  S
N1077      H1310   1.045   1_554  S
H1078      C1299   1.076   1_554  S
H1079      C1530   1.080       .  S
N1080      H1083   1.044       .  S
N1080      H1540   1.045       .  S
H1082      N1305   1.045       .  S
H1084      N1536   1.045       .  S
C1085      C1086   1.398       .  A
C1085      C1090   1.379       .  A
C1085      H1092   1.085       .  S
C1087      C1088   1.410       .  A
C1087      N1094   1.438       .  S
C1088      H1093   1.078       .  S
C1089      C1090   1.417   1_455  A
C1090      N1319   1.430   1_654  S
N1091      C1318   1.430   1_455  S
N1091      H1095   1.033   1_455  S
N1091      H1096   1.044       .  S
N1094      H1097   1.046       .  S
N1094      H1098   1.046       .  S
C1099      C1100   1.398   1_455  A
C1099      C1104   1.397       .  A
C1099      H1106   1.076       .  S
C1100      C1101   1.426       .  A
C1101      C1102   1.436       .  A
C1102      C1103   1.416       .  A
C1102      H1107   1.083       .  S
C1103      C1104   1.415   1_655  A
C1104      N1105   1.431       .  S
N1105      H1109   1.045       .  S
N1105      H1110   1.044       .  S
N1108      H1111   1.045       .  S
N1108      H1112   1.045       .  S
C1113      C1118   1.410       .  A
C1113      H1120   1.083       .  S
C1114      C1115   1.412       .  A
C1115      C1116   1.413       .  A
C1115      N1122   1.431       .  S
C1116      C1117   1.411       .  A
C1116      H1121   1.081       .  S
C1118      N1119   1.436       .  S
N1119      H1123   1.045       .  S
N1119      H1124   1.037       .  S
N1122      H1125   1.043       .  S
N1122      H1126   1.046       .  S
C1127      C1128   1.393       .  A
C1127      C1132   1.400       .  A
C1127      H1134   1.074       .  S
C1129      C1130   1.401       .  A
C1129      N1136   1.437       .  S
C1130      H1135   1.081       .  S
C1131      C1132   1.409       .  A
C1132      N1133   1.433       .  S
N1133      H1137   1.046       .  S
N1133      H1138   1.041       .  S
N1136      H1139   1.045       .  S
N1136      H1140   1.046       .  S
C1141      C1328   1.533       .  S
C1142      C1345   1.522       .  S
C1143      C1300   1.520   1_554  S
C1143      C1144   1.392   1_554  D
C1144      C1286   1.508       .  S
C1145      C1233   1.472   1_554  S
C1145      C1146   1.369   1_554  D
C1146      C1247   1.525       .  S
O1147      C1158   1.286       .  A
O1147     Eu1183   2.439       .  S
O1148      C1159   1.289       .  A
O1148     Eu1182   2.453       .  S
O1149      C1160   1.284       .  A
O1149     Eu1155   2.419       .  S
O1150      C1161   1.305       .  A
O1151      C1161   1.277       .  A
O1151     Eu1185   2.352       .  S
O1152      C1160   1.301       .  A
O1152     Eu1184   2.518       .  S
O1153      C1159   1.289       .  A
O1153     Eu1611   2.450       .  S
O1154     Eu1155   2.467       .  S
Eu1155     O1609   2.450   1_545  S
Eu1155     O1157   2.374       .  S
Eu1155     O1612   2.342   1_645  S
Eu1155     O1619   2.377   1_545  S
O1156     Eu1611   2.342   1_455  S
O1156     Eu1182   2.346   1_455  S
O1157     Eu1184   2.355       .  S
C1158      C1356   1.463       .  S
C1159      C1230   1.459       .  S
C1160      C1289   1.489       .  S
C1161      C1759   1.478       .  S
H1162      O1163   0.965       .  S
O1163     Eu1611   2.377       .  S
O1163     Eu1640   2.357       .  S
O1163     Eu1182   2.362       .  S
H1164      O1165   0.961       .  S
O1165     Eu1183   2.337       .  S
O1165     Eu1185   2.360       .  S
O1166      C1189   1.292       .  A
O1166     Eu1182   2.480       .  S
O1167      C1190   1.288       .  A
O1167     Eu1183   2.444       .  S
O1168      C1191   1.306       .  A
O1168     Eu1640   2.561       .  S
O1169      C1192   1.307       .  A
O1169     Eu1641   2.556       .  S
O1170      C1193   1.305       .  A
O1170     Eu1185   2.551       .  S
O1171      C1194   1.312       .  A
O1171     Eu1184   2.588       .  S
O1172      C1195   1.313       .  A
O1173      C1196   1.297   1_565  A
O1173     Eu1186   2.489   1_565  S
O1174      C1195   1.276       .  A
O1174     Eu1184   2.345       .  S
O1175      C1196   1.294       .  A
O1175     Eu1185   2.475       .  S
O1176      C1191   1.283       .  A
O1176     Eu1182   2.411       .  S
O1177     Eu1183   2.463       .  S
O1178      C1193   1.294       .  A
O1178     Eu1183   2.464       .  S
O1179     Eu1182   2.402       .  S
O1180     Eu1642   2.374       .  S
O1181      C1190   1.287       .  A
O1181     Eu1186   2.419       .  S
Eu1182     O1188   2.326       .  S
Eu1183     O1187   2.352       .  S
Eu1183     O1198   2.334       .  S
Eu1184     O1624   2.561   1_545  S
Eu1184     O1619   2.357   1_545  S
Eu1184     O1644   2.352   1_545  S
Eu1185     O1625   2.556   1_545  S
Eu1185     O1187   2.360       .  S
Eu1185     O1656   2.350   1_545  S
Eu1186     O1636   2.374   1_545  S
Eu1186     O1187   2.365       .  S
Eu1186     O1198   2.307       .  S
Eu1186     O1656   2.369   1_545  S
O1188     Eu1640   2.352       .  S
C1189      C1314   1.467       .  S
C1190      C1219   1.465       .  S
C1191      C1205   1.518       .  S
C1192      C1342   1.509       .  S
C1193      C1244   1.512       .  S
C1194      C1331   1.521       .  S
C1195      C1261   1.485       .  S
C1196      C1272   1.484   1_545  S
H1197      O1198   0.958       .  S
H1199      O1200   0.965       .  S
O1200     Eu1641   2.350       .  S
O1200     Eu1642   2.369       .  S
C1201      C1202   1.410       .  A
C1201      C1206   1.413       .  A
C1201      H1208   1.078       .  S
C1202      C1203   1.416       .  A
C1203      C1204   1.407       .  A
C1203      N1210   1.437       .  S
C1204      C1205   1.419       .  A
C1204      H1209   1.083       .  S
C1205      C1206   1.417       .  A
C1206      N1207   1.432       .  S
N1207      H1211   1.041       .  S
N1207      H1212   1.045       .  S
N1210      H1213   1.039       .  S
N1210      H1214   1.046       .  S
C1215      C1216   1.408       .  A
C1215      C1220   1.398       .  A
C1215      H1222   1.080       .  S
C1216      C1217   1.404       .  A
C1217      C1218   1.395       .  A
C1218      C1219   1.401       .  A
C1218      H1223   1.084       .  S
C1219      C1220   1.409       .  A
C1220      N1221   1.438       .  S
N1221      H1225   1.046       .  S
N1221      H1226   1.045       .  S
N1224      H1227   1.044       .  S
N1224      H1228   1.044       .  S
C1229      C1230   1.394       .  A
C1229      C1234   1.398       .  A
C1229      H1236   1.075       .  S
C1230      C1231   1.409       .  A
C1231      C1232   1.403       .  A
C1231      N1238   1.438       .  S
C1232      C1233   1.401       .  A
C1232      H1237   1.083       .  S
C1233      C1234   1.404       .  A
N1235      H1239   1.039       .  S
N1235      H1240   1.045       .  S
N1238      H1241   1.045       .  S
N1238      H1242   1.046       .  S
C1243      C1244   1.403       .  A
C1243      C1248   1.394       .  A
C1243      H1250   1.081       .  S
C1244      C1245   1.423       .  A
C1245      C1246   1.430       .  A
C1245      N1252   1.435       .  S
C1246      C1247   1.417       .  A
C1246      H1251   1.083       .  S
C1247      C1248   1.406       .  A
C1248      N1249   1.423       .  S
N1249      H1253   1.042       .  S
N1249      H1254   1.045       .  S
N1252      H1255   1.044       .  S
N1252      H1256   1.042       .  S
C1257      C1714   1.392   1_545  A
C1257      C1262   1.391       .  A
C1257      H1264   1.083       .  S
C1258      C1713   1.392       .  A
C1258      C1259   1.427       .  A
C1259      C1260   1.418       .  A
C1259      N1266   1.428       .  S
C1260      C1717   1.405       .  A
C1260      H1265   1.083       .  S
C1261      C1716   1.405   1_545  A
C1261      C1262   1.409       .  A
C1262      N1263   1.419       .  S
N1263      H1267   1.045       .  S
N1263      H1268   1.046       .  S
N1266      H1269   1.045       .  S
N1266      H1270   1.041       .  S
C1271      C1728   1.407       .  A
C1271      C1276   1.414       .  A
C1271      H1278   1.084       .  S
C1272      C1727   1.407       .  A
C1272      C1273   1.415   1_565  A
C1273      C1274   1.404       .  A
C1273      N1280   1.439       .  S
C1274      C1731   1.407   1_545  A
C1274      H1279   1.084       .  S
C1275      C1730   1.407       .  A
C1275      C1276   1.411       .  A
C1276      N1277   1.436       .  S
N1277      H1281   1.046       .  S
N1277      H1282   1.045       .  S
N1280      H1283   1.044       .  S
N1280      H1284   1.043       .  S
C1285      C1286   1.402       .  A
C1285      C1290   1.388       .  A
C1285      H1292   1.081       .  S
C1286      C1287   1.413       .  A
C1287      C1744   1.425       .  A
C1287      N1294   1.431       .  S
C1288      C1743   1.425       .  A
C1288      C1289   1.409   1_565  A
C1288      H1293   1.083       .  S
C1289      C1746   1.413       .  A
C1290      C1745   1.413       .  A
C1290      N1291   1.439       .  S
N1291      H1295   1.045       .  S
N1291      H1752   1.045       .  S
N1294      H1297   1.044       .  S
N1294      H1298   1.045       .  S
H1296      N1747   1.045       .  S
C1299      C1300   1.428       .  A
C1299      C1304   1.407       .  A
C1300      C1301   1.411       .  A
C1301      C1302   1.399       .  A
C1301      N1308   1.426       .  S
C1302      C1303   1.407       .  A
C1302      H1763   1.080       .  S
C1303      C1617   1.478       .  S
C1303      C1304   1.394       .  A
N1305      H1309   1.036       .  S
H1307      C1758   1.080       .  S
N1308      H1311   1.044       .  S
N1308      H1768   1.045       .  S
H1312      N1764   1.045       .  S
C1313      C1314   1.398       .  A
C1313      C1318   1.379       .  A
C1313      H1320   1.085       .  S
C1315      C1316   1.410       .  A
C1315      N1322   1.438       .  S
C1316      H1321   1.078       .  S
C1317      C1318   1.417   1_455  A
N1319      H1323   1.033   1_455  S
N1319      H1324   1.044       .  S
N1322      H1325   1.046       .  S
N1322      H1326   1.046       .  S
C1327      C1328   1.398   1_455  A
C1327      C1332   1.397       .  A
C1327      H1334   1.076       .  S
C1328      C1329   1.426       .  A
C1329      C1330   1.436       .  A
C1330      C1331   1.416       .  A
C1330      H1335   1.083       .  S
C1331      C1332   1.415   1_655  A
C1332      N1333   1.431       .  S
N1333      H1337   1.045       .  S
N1333      H1338   1.044       .  S
N1336      H1339   1.045       .  S
N1336      H1340   1.045       .  S
C1341      C1346   1.410       .  A
C1341      H1348   1.083       .  S
C1342      C1343   1.412       .  A
C1343      C1344   1.413       .  A
C1343      N1350   1.431       .  S
C1344      C1345   1.411       .  A
C1344      H1349   1.081       .  S
C1346      N1347   1.436       .  S
N1347      H1351   1.045       .  S
N1347      H1352   1.037       .  S
N1350      H1353   1.043       .  S
N1350      H1354   1.046       .  S
C1355      C1356   1.393       .  A
C1355      C1360   1.400       .  A
C1355      H1362   1.074       .  S
C1357      C1358   1.401       .  A
C1357      N1364   1.437       .  S
C1358      H1363   1.081       .  S
C1359      C1360   1.409       .  A
C1360      N1361   1.433       .  S
N1361      H1365   1.046       .  S
N1361      H1366   1.041       .  S
N1364      H1367   1.045       .  S
N1364      H1368   1.046       .  S
C1369      C1556   1.533   1_556  S
C1370      C1573   1.522       .  S
C1371      C1731   1.502       .  S
C1371      C1528   1.520   1_565  S
C1371      C1372   1.392       .  D
C1372      C1714   1.510       .  S
C1372      C1514   1.508   1_565  S
C1373      C1658   1.520       .  S
C1373      C1461   1.472       .  S
C1373      C1374   1.369       .  D
C1374      C1672   1.485       .  S
C1374      C1475   1.525       .  S
O1375      C1386   1.286       .  A
O1375     Eu1411   2.439       .  S
O1376      C1387   1.289       .  A
O1376     Eu1410   2.453       .  S
O1377      C1388   1.284       .  A
O1377     Eu1383   2.419       .  S
O1378      C1389   1.305       .  A
O1379      C1389   1.277       .  A
O1379     Eu1413   2.352       .  S
O1380      C1388   1.301       .  A
O1380     Eu1412   2.518       .  S
O1381      C1387   1.289       .  A
O1382     Eu1383   2.467       .  S
Eu1383     O1385   2.374       .  S
O1384     Eu1410   2.346   1_455  S
O1385     Eu1412   2.355       .  S
C1386      C1584   1.463       .  S
C1387      C1458   1.459       .  S
C1388      C1517   1.489       .  S
H1390      O1391   0.965       .  S
O1391     Eu1410   2.362       .  S
H1392      O1393   0.961       .  S
O1393     Eu1411   2.337       .  S
O1393     Eu1413   2.360       .  S
O1394      C1417   1.292       .  A
O1394     Eu1410   2.480       .  S
O1395      C1418   1.288       .  A
O1395     Eu1411   2.444       .  S
O1396      C1419   1.306       .  A
O1397      C1420   1.307       .  A
O1398      C1421   1.305       .  A
O1398     Eu1413   2.551       .  S
O1399      C1422   1.312       .  A
O1399     Eu1412   2.588       .  S
O1400      C1423   1.313       .  A
O1401      C1424   1.297       .  A
O1401     Eu1414   2.489       .  S
O1402      C1423   1.276       .  A
O1402     Eu1412   2.345       .  S
O1403      C1424   1.294       .  A
O1403     Eu1413   2.475       .  S
O1404      C1419   1.283       .  A
O1404     Eu1410   2.411       .  S
O1405     Eu1411   2.463       .  S
O1406      C1421   1.294       .  A
O1406     Eu1411   2.464       .  S
O1407     Eu1410   2.402       .  S
O1409      C1418   1.287       .  A
O1409     Eu1414   2.419       .  S
Eu1410     O1416   2.326       .  S
Eu1411     O1415   2.352       .  S
Eu1411     O1426   2.333       .  S
Eu1413     O1415   2.360       .  S
Eu1414     O1415   2.365       .  S
Eu1414     O1426   2.307       .  S
C1417      C1542   1.467       .  S
C1418      C1447   1.465       .  S
C1419      C1433   1.518       .  S
C1420      C1570   1.509       .  S
C1421      C1472   1.512       .  S
C1422      C1559   1.521       .  S
C1423      C1489   1.485       .  S
C1424      C1500   1.484       .  S
H1425      O1426   0.959       .  S
H1427      O1428   0.965       .  S
C1429      C1430   1.410       .  A
C1429      C1434   1.413       .  A
C1429      H1436   1.078       .  S
C1430      C1601   1.520       .  S
C1430      C1431   1.416       .  A
C1431      C1432   1.407       .  A
C1431      N1438   1.437       .  S
C1432      C1433   1.419       .  A
C1432      H1437   1.083       .  S
C1433      C1434   1.417       .  A
C1434      N1435   1.432       .  S
N1435      H1439   1.041       .  S
N1435      H1440   1.045       .  S
N1438      H1441   1.039       .  S
N1438      H1442   1.046       .  S
C1443      C1444   1.408       .  A
C1443      C1448   1.398       .  A
C1443      H1450   1.080       .  S
C1444      C1602   1.485   1_554  S
C1444      C1445   1.404       .  A
C1445      C1446   1.395       .  A
C1445      N1680   1.434       .  S
C1446      C1447   1.401       .  A
C1446      H1451   1.084       .  S
C1447      C1448   1.409       .  A
C1448      N1449   1.438       .  S
N1449      H1453   1.046       .  S
N1449      H1454   1.045       .  S
N1452      C1673   1.434       .  S
N1452      H1455   1.044       .  S
N1452      H1456   1.044       .  S
C1457      C1458   1.394       .  A
C1457      C1462   1.398       .  A
C1457      H1464   1.075       .  S
C1458      C1459   1.409       .  A
C1459      C1460   1.403       .  A
C1459      N1466   1.438       .  S
C1460      C1461   1.401       .  A
C1460      H1465   1.083       .  S
C1461      C1462   1.404       .  A
C1462      N1691   1.435       .  S
N1463      C1690   1.435   1_554  S
N1463      H1467   1.039   1_554  S
N1463      H1468   1.045   1_554  S
N1466      H1469   1.045       .  S
N1466      H1470   1.046       .  S
C1471      C1472   1.403       .  A
C1471      C1476   1.394       .  A
C1471      H1478   1.081       .  S
C1472      C1473   1.423       .  A
C1473      C1474   1.430       .  A
C1473      N1480   1.435       .  S
C1474      C1475   1.417       .  A
C1474      H1479   1.083       .  S
C1475      C1476   1.406       .  A
C1476      N1477   1.423       .  S
N1477      H1481   1.042       .  S
N1477      H1482   1.045       .  S
N1480      H1483   1.044       .  S
N1480      H1484   1.042       .  S
C1485      C1490   1.391       .  A
C1485      H1492   1.083       .  S
C1486      C1600   1.510   1_554  S
C1486      C1487   1.427       .  A
C1487      C1488   1.418       .  A
C1487      N1494   1.428   1_554  S
C1488      H1493   1.083       .  S
C1489      C1490   1.409       .  A
C1490      N1491   1.419       .  S
N1491      H1495   1.045       .  S
N1491      H1496   1.046       .  S
N1494      H1497   1.045       .  S
N1494      H1498   1.041       .  S
C1499      C1504   1.414       .  A
C1499      H1506   1.084       .  S
C1500      C1501   1.415       .  A
C1501      C1502   1.404       .  A
C1501      N1508   1.439       .  S
C1502      H1507   1.084       .  S
C1503      C1599   1.502       .  S
C1503      C1504   1.411       .  A
C1504      N1505   1.436       .  S
N1505      H1509   1.046       .  S
N1505      H1510   1.045       .  S
N1508      H1511   1.044       .  S
N1508      H1512   1.043       .  S
C1513      C1514   1.402       .  A
C1513      C1518   1.388       .  A
C1513      H1520   1.081       .  S
C1514      C1515   1.413   1_545  A
C1515      N1522   1.431       .  S
C1516      C1517   1.409       .  A
C1516      H1521   1.083       .  S
C1518      N1519   1.439       .  S
N1519      H1523   1.045       .  S
N1522      H1525   1.044       .  S
N1522      H1526   1.045       .  S
C1527      C1528   1.428   1_565  A
C1527      C1532   1.407   1_565  A
C1527      H1762   1.076       .  S
C1528      C1529   1.411       .  A
C1529      C1530   1.399       .  A
C1529      N1536   1.426       .  S
C1530      C1531   1.407       .  A
C1531      C1532   1.394       .  A
C1532      N1761   1.436   1_545  S
N1533      C1760   1.436   1_564  S
N1533      H1537   1.036       .  S
N1533      H1766   1.045   1_564  S
H1534      C1755   1.076   1_554  S
N1536      H1539   1.044       .  S
H1538      N1761   1.045   1_545  S
C1541      C1542   1.398       .  A
C1541      C1546   1.379       .  A
C1541      H1548   1.085       .  S
C1543      C1544   1.410       .  A
C1543      N1550   1.438       .  S
C1544      H1549   1.078       .  S
C1545      C1546   1.417   1_455  A
C1546      N1775   1.430   1_654  S
N1547      C1774   1.430   1_455  S
N1547      H1551   1.033   1_455  S
N1547      H1552   1.044       .  S
N1550      H1553   1.046       .  S
N1550      H1554   1.046       .  S
C1555      C1556   1.398   1_455  A
C1555      C1560   1.397       .  A
C1555      H1562   1.076       .  S
C1556      C1557   1.426       .  A
C1557      C1558   1.436       .  A
C1558      C1559   1.416       .  A
C1558      H1563   1.083       .  S
C1559      C1560   1.415   1_655  A
C1560      N1561   1.431       .  S
N1561      H1565   1.045       .  S
N1561      H1566   1.044       .  S
N1564      H1567   1.045       .  S
N1564      H1568   1.045       .  S
C1569      C1574   1.410       .  A
C1569      H1576   1.083       .  S
C1570      C1571   1.412       .  A
C1571      C1572   1.413       .  A
C1571      N1578   1.431       .  S
C1572      C1573   1.411       .  A
C1572      H1577   1.081       .  S
C1574      N1575   1.436       .  S
N1575      H1579   1.045       .  S
N1575      H1580   1.037       .  S
N1578      H1581   1.043       .  S
N1578      H1582   1.046       .  S
C1583      C1584   1.393       .  A
C1583      C1588   1.400       .  A
C1583      H1590   1.074       .  S
C1585      C1586   1.401       .  A
C1585      N1592   1.437       .  S
C1586      H1591   1.081       .  S
C1587      C1588   1.409       .  A
C1588      N1589   1.433       .  S
N1589      H1593   1.046       .  S
N1589      H1594   1.041       .  S
N1592      H1595   1.045       .  S
N1592      H1596   1.046       .  S
C1597      C1784   1.533       .  S
C1598      C1801   1.522       .  S
C1599      C1756   1.520   1_564  S
C1599      C1600   1.392   1_554  D
C1600      C1742   1.508   1_565  S
C1601      C1689   1.472   1_554  S
C1601      C1602   1.369   1_554  D
C1602      C1703   1.525       .  S
O1603      C1614   1.286       .  A
O1603     Eu1639   2.439       .  S
O1604      C1615   1.289       .  A
O1604     Eu1638   2.453       .  S
O1605      C1616   1.284       .  A
O1605     Eu1611   2.419       .  S
O1606      C1617   1.305       .  A
O1607      C1617   1.277       .  A
O1607     Eu1641   2.352       .  S
O1608      C1616   1.301       .  A
O1608     Eu1640   2.518       .  S
O1609      C1615   1.289       .  A
O1610     Eu1611   2.467       .  S
Eu1611     O1613   2.374       .  S
O1612     Eu1638   2.346   1_455  S
O1613     Eu1640   2.355       .  S
C1614      C1812   1.463       .  S
C1615      C1686   1.459       .  S
C1616      C1745   1.489       .  S
H1618      O1619   0.965       .  S
O1619     Eu1638   2.362       .  S
H1620      O1621   0.961       .  S
O1621     Eu1639   2.337       .  S
O1621     Eu1641   2.360       .  S
O1622      C1645   1.292       .  A
O1622     Eu1638   2.480       .  S
O1623      C1646   1.288       .  A
O1623     Eu1639   2.444       .  S
O1624      C1647   1.306       .  A
O1625      C1648   1.307       .  A
O1626      C1649   1.305       .  A
O1626     Eu1641   2.551       .  S
O1627      C1650   1.312       .  A
O1627     Eu1640   2.588       .  S
O1628      C1651   1.313       .  A
O1629      C1652   1.297       .  A
O1629     Eu1642   2.489       .  S
O1630      C1651   1.276       .  A
O1630     Eu1640   2.345       .  S
O1631      C1652   1.294       .  A
O1631     Eu1641   2.475       .  S
O1632      C1647   1.283       .  A
O1632     Eu1638   2.411       .  S
O1633     Eu1639   2.463       .  S
O1634      C1649   1.294       .  A
O1634     Eu1639   2.464       .  S
O1635     Eu1638   2.402       .  S
O1637      C1646   1.287       .  A
O1637     Eu1642   2.419       .  S
Eu1638     O1644   2.326       .  S
Eu1639     O1643   2.352       .  S
Eu1639     O1654   2.334       .  S
Eu1641     O1643   2.360       .  S
Eu1642     O1643   2.365       .  S
Eu1642     O1654   2.307       .  S
C1645      C1770   1.467       .  S
C1646      C1675   1.465       .  S
C1647      C1661   1.518       .  S
C1648      C1798   1.509       .  S
C1649      C1700   1.512       .  S
C1650      C1787   1.521       .  S
C1651      C1717   1.485       .  S
C1652      C1728   1.484       .  S
H1653      O1654   0.958       .  S
H1655      O1656   0.965       .  S
C1657      C1658   1.410       .  A
C1657      C1662   1.413       .  A
C1657      H1664   1.078       .  S
C1658      C1659   1.416       .  A
C1659      C1660   1.407       .  A
C1659      N1666   1.437       .  S
C1660      C1661   1.419       .  A
C1660      H1665   1.083       .  S
C1661      C1662   1.417       .  A
C1662      N1663   1.432       .  S
N1663      H1667   1.041       .  S
N1663      H1668   1.045       .  S
N1666      H1669   1.039       .  S
N1666      H1670   1.046       .  S
C1671      C1672   1.408       .  A
C1671      C1676   1.398       .  A
C1671      H1678   1.080       .  S
C1672      C1673   1.404       .  A
C1673      C1674   1.395       .  A
C1674      C1675   1.401       .  A
C1674      H1679   1.084       .  S
C1675      C1676   1.409       .  A
C1676      N1677   1.438       .  S
N1677      H1681   1.046       .  S
N1677      H1682   1.045       .  S
N1680      H1683   1.044       .  S
N1680      H1684   1.044       .  S
C1685      C1686   1.394       .  A
C1685      C1690   1.398       .  A
C1685      H1692   1.075       .  S
C1686      C1687   1.409       .  A
C1687      C1688   1.403       .  A
C1687      N1694   1.438       .  S
C1688      C1689   1.401       .  A
C1688      H1693   1.083       .  S
C1689      C1690   1.404       .  A
N1691      H1695   1.039       .  S
N1691      H1696   1.045       .  S
N1694      H1697   1.045       .  S
N1694      H1698   1.046       .  S
C1699      C1700   1.403       .  A
C1699      C1704   1.394       .  A
C1699      H1706   1.081       .  S
C1700      C1701   1.423       .  A
C1701      C1702   1.430       .  A
C1701      N1708   1.435       .  S
C1702      C1703   1.417       .  A
C1702      H1707   1.083       .  S
C1703      C1704   1.406       .  A
C1704      N1705   1.423       .  S
N1705      H1709   1.042       .  S
N1705      H1710   1.045       .  S
N1708      H1711   1.044       .  S
N1708      H1712   1.042       .  S
C1713      C1718   1.391       .  A
C1713      H1720   1.083       .  S
C1714      C1715   1.427       .  A
C1715      C1716   1.418       .  A
C1715      N1722   1.428       .  S
C1716      H1721   1.083       .  S
C1717      C1718   1.409       .  A
C1718      N1719   1.419       .  S
N1719      H1723   1.045       .  S
N1719      H1724   1.046       .  S
N1722      H1725   1.045       .  S
N1722      H1726   1.041       .  S
C1727      C1732   1.414       .  A
C1727      H1734   1.084       .  S
C1728      C1729   1.415       .  A
C1729      C1730   1.404       .  A
C1729      N1736   1.439       .  S
C1730      H1735   1.084       .  S
C1731      C1732   1.411       .  A
C1732      N1733   1.436       .  S
N1733      H1737   1.046       .  S
N1733      H1738   1.045       .  S
N1736      H1739   1.044       .  S
N1736      H1740   1.043       .  S
C1741      C1742   1.402       .  A
C1741      C1746   1.388       .  A
C1741      H1748   1.081       .  S
C1742      C1743   1.413   1_545  A
C1743      N1750   1.431       .  S
C1744      C1745   1.409       .  A
C1744      H1749   1.083       .  S
C1746      N1747   1.439       .  S
N1747      H1751   1.045       .  S
N1750      H1753   1.044       .  S
N1750      H1754   1.045       .  S
C1755      C1756   1.428   1_565  A
C1755      C1760   1.407   1_565  A
C1756      C1757   1.411       .  A
C1757      C1758   1.399       .  A
C1757      N1764   1.426       .  S
C1758      C1759   1.407       .  A
C1759      C1760   1.394       .  A
N1761      H1765   1.036       .  S
N1764      H1767   1.044       .  S
C1769      C1770   1.398       .  A
C1769      C1774   1.379       .  A
C1769      H1776   1.085       .  S
C1771      C1772   1.410       .  A
C1771      N1778   1.438       .  S
C1772      H1777   1.078       .  S
C1773      C1774   1.417   1_455  A
N1775      H1779   1.033   1_455  S
N1775      H1780   1.044       .  S
N1778      H1781   1.046       .  S
N1778      H1782   1.046       .  S
C1783      C1784   1.398   1_455  A
C1783      C1788   1.397       .  A
C1783      H1790   1.076       .  S
C1784      C1785   1.426       .  A
C1785      C1786   1.436       .  A
C1786      C1787   1.416       .  A
C1786      H1791   1.083       .  S
C1787      C1788   1.415   1_655  A
C1788      N1789   1.431       .  S
N1789      H1793   1.045       .  S
N1789      H1794   1.044       .  S
N1792      H1795   1.045       .  S
N1792      H1796   1.045       .  S
C1797      C1802   1.410       .  A
C1797      H1804   1.083       .  S
C1798      C1799   1.412       .  A
C1799      C1800   1.413       .  A
C1799      N1806   1.431       .  S
C1800      C1801   1.411       .  A
C1800      H1805   1.081       .  S
C1802      N1803   1.436       .  S
N1803      H1807   1.045       .  S
N1803      H1808   1.037       .  S
N1806      H1809   1.043       .  S
N1806      H1810   1.046       .  S
C1811      C1812   1.393       .  A
C1811      C1816   1.400       .  A
C1811      H1818   1.074       .  S
C1813      C1814   1.401       .  A
C1813      N1820   1.437       .  S
C1814      H1819   1.081       .  S
C1815      C1816   1.409       .  A
C1816      N1817   1.433       .  S
N1817      H1821   1.046       .  S
N1817      H1822   1.041       .  S
N1820      H1823   1.045       .  S
N1820      H1824   1.046       .  S
