geometry optimzed in LAMMPS
_audit_creation_date              2020-11-30 
_audit_creation_method            'lammps2cif' 
_symmetry_space_group_name_H-M    'P1' 
_symmetry_Int_Tables_number       1 
_symmetry_cell_setting            triclinic 
loop_ 
_symmetry_equiv_pos_as_xyz 
  x,y,z 
_cell_length_a                    33.88329376 
_cell_length_b                    34.12165801762268 
_cell_length_c                    28.406883231594108 
_cell_angle_alpha                 89.9037675544766 
_cell_angle_beta                  89.95813489713734 
_cell_angle_gamma                 120.07980791186631 
loop_ 
_atom_site_label 
_atom_site_type_symbol 
_atom_site_fract_x 
_atom_site_fract_y 
_atom_site_fract_z 
_atom_site_charge 
O1          O  0.56457880  0.72095200  0.34613602    -0.82900
C2          C  0.52156224  0.59313071  0.47691242     0.96400
O3          O  0.54946654  0.60829204  0.44271985    -0.72100
O4          O  0.58122964  0.64792984  0.36033784    -0.75600
Al5        Al  0.58163412  0.66844486  0.42284039     1.49000
C6          C  0.54942150  0.62579234  0.33202740     0.91700
O7          O  0.44485628  0.62692332  0.38225356    -0.81900
O8          O  0.49294110  0.71668035  0.46349522    -0.75400
Al9        Al  0.50622668  0.67293711  0.36771863     1.90100
O10         O  0.44450882  0.62515941  0.45900881    -0.74500
O11         O  0.55864939  0.71387140  0.50875903    -0.74300
O12         O  0.50955223  0.61800150  0.49895335    -0.80000
O13         O  0.60125090  0.68735872  0.48551600    -0.78200
O14         O  0.52987412  0.67007234  0.42272796    -1.14300
O15         O  0.61367962  0.72898801  0.40273313    -0.73500
C16         C  0.60225111  0.74440949  0.36784677     0.97200
C17         C  0.42370708  0.61152453  0.42068489     0.93600
Al18       Al  0.50387862  0.66865962  0.47776557     1.55600
O19         O  0.51253974  0.62580666  0.33701033    -0.78200
C20         C  0.59283035  0.70943393  0.51492743     0.97700
C21         C  0.48820034  0.73300783  0.42558017     0.92600
O22         O  0.49430360  0.71919222  0.38666238    -0.83500
O23         O  0.70994453  0.57091628  0.16625363    -0.82900
C24         C  0.58201377  0.52897237  0.03570783     0.96400
O25         O  0.59672136  0.55623994  0.07001782    -0.72100
O26         O  0.63768861  0.58935095  0.15142595    -0.75600
Al27       Al  0.65730300  0.58744841  0.08901586     1.49000
C28         C  0.61491224  0.55879419  0.18074253     0.91700
O29         O  0.61253172  0.45135194  0.13360156    -0.81900
O30         O  0.70465846  0.49620719  0.05194985    -0.75400
Al31       Al  0.66016602  0.51276375  0.14664966     1.90100
O32         O  0.61242953  0.45125201  0.05645958    -0.74500
O33         O  0.70301713  0.56246082  0.00539558    -0.74300
O34         O  0.60656566  0.51590309  0.01426500    -0.80000
O35         O  0.67701717  0.60617648  0.02592819    -0.78200
O36         O  0.65803004  0.53553485  0.09084877    -1.14300
O37         O  0.71767104  0.61818682  0.10780660    -0.73500
C38         C  0.73346419  0.60728444  0.14258919     0.97200
C39         C  0.59841641  0.43055142  0.09490366     0.93600
Al40       Al  0.65674503  0.50891566  0.03661315     1.55600
O41         O  0.61373321  0.52147128  0.17683014    -0.78200
C42         C  0.70139614  0.59805090  0.99916982     0.97700
C43         C  0.71962882  0.49099612  0.09086459     0.92600
O44         O  0.70552324  0.49866587  0.12875966    -0.83500
O45         O  0.80622874  0.76288679  0.68198403    -0.82900
C46         C  0.71350672  0.79558731  0.81346151     0.96400
O47         O  0.70268454  0.76732896  0.78029478    -0.72100
O48         O  0.71534055  0.74046673  0.69845218    -0.75600
Al49       Al  0.73577671  0.74049471  0.75977799     1.49000
C50         C  0.72133621  0.77114284  0.67030597     0.91700
O51         O  0.82468639  0.87898081  0.71839642    -0.81900
O52         O  0.87095359  0.83627266  0.80030456    -0.75400
Al53       Al  0.81250836  0.81920434  0.70435531     1.90100
O54         O  0.82293531  0.88062078  0.79496859    -0.74500
O55         O  0.80389286  0.76901218  0.84682648    -0.74300
O56         O  0.75162630  0.81204366  0.83478368    -0.80000
O57         O  0.73711848  0.72011912  0.82129717    -0.78200
O58         O  0.78691568  0.79451694  0.75964792    -1.14300
O59         O  0.76793485  0.71270209  0.73849517    -0.73500
C60         C  0.79327777  0.72500390  0.70233744     0.97200
C61         C  0.83000105  0.90068994  0.75593978     0.93600
Al62       Al  0.81006990  0.82178344  0.81446066     1.55600
O63         O  0.75642409  0.80955252  0.67466738    -0.78200
C64         C  0.76840263  0.73091243  0.85046058     0.97700
C65         C  0.89259331  0.84219095  0.76224256     0.92600
O66         O  0.87242846  0.83448820  0.72314964    -0.83500
O67         O  0.27769399  0.50298917  0.87909744    -0.82900
C68         C  0.40144276  0.47035279  0.97258461     0.96400
O69         O  0.37837071  0.48545942  0.99306763    -0.72100
O70         O  0.37537506  0.55165396  0.95039000    -0.75600
Al71       Al  0.32971848  0.49410901  0.97053549     1.49000
C72         C  0.38795274  0.57212289  0.91177051     0.91700
O73         O  0.37033589  0.48263766  0.82961959    -0.81900
O74         O  0.26585557  0.38426297  0.89595034    -0.75400
Al75       Al  0.32382998  0.49026199  0.86029320     1.90100
O76         O  0.34815399  0.41479434  0.85478016    -0.74500
O77         O  0.30388628  0.39447909  0.97900471    -0.74300
O78         O  0.38614377  0.44338901  0.93808774    -0.80000
O79         O  0.28316468  0.44171441  0.00249406    -0.78200
O80         O  0.32661660  0.46686479  0.91588042    -1.14300
O81         O  0.28320623  0.50772299  0.95582829    -0.73500
C82         C  0.26538406  0.51081050  0.91804034     0.97200
C83         C  0.36980103  0.44568577  0.82531196     0.93600
Al84       Al  0.32607146  0.41423697  0.91683879     1.55600
O85         O  0.37079681  0.55116755  0.87380787    -0.78200
C86         C  0.28263953  0.40495934  0.00766055     0.97700
C87         C  0.25108108  0.39580311  0.86081937     0.92600
O88         O  0.27503052  0.43289724  0.83883138    -0.83500
O89         O  0.49239440  0.28877733  0.61513250    -0.82900
C90         C  0.45086786  0.40571978  0.52357163     0.96400
O91         O  0.46715645  0.38356235  0.50337339    -0.72100
O92         O  0.53557175  0.38075634  0.54171005    -0.75600
Al93       Al  0.47673560  0.33520224  0.52464762     1.49000
C94         C  0.55727178  0.39627952  0.57920886     0.91700
O95         O  0.46876698  0.37816628  0.66641617    -0.81900
O96         O  0.36933996  0.27234247  0.60530904    -0.75400
Al97       Al  0.47762836  0.33286940  0.63484928     1.90100
O98         O  0.39975186  0.35472805  0.64354409    -0.74500
O99         O  0.37545216  0.30788638  0.52158800    -0.74300
O100        O  0.42441703  0.38995266  0.55873501    -0.80000
O101        O  0.42307788  0.28878063  0.49500510    -0.78200
O102        O  0.45125905  0.33320162  0.58054469    -1.14300
O103        O  0.49101788  0.28843777  0.53829234    -0.73500
C104        C  0.49744722  0.27361094  0.57656511     0.97200
C105        C  0.43159641  0.37758926  0.67157574     0.93600
Al106      Al  0.39751568  0.33132822  0.58217291     1.55600
O107        O  0.53746354  0.38148895  0.61839565    -0.78200
C108        C  0.38575876  0.28777482  0.49160353     0.97700
C109        C  0.38288270  0.25806400  0.63927885     0.92600
O110        O  0.42159897  0.28259451  0.65857887    -0.83500
O111        O  0.16391416  0.12338930  0.20863505    -0.82900
C112        C  0.19271050  0.27764489  0.30529013     0.96400
O113        O  0.17669570  0.23857543  0.32368699    -0.72100
O114        O  0.11078946  0.16947025  0.27954574    -0.75600
Al115      Al  0.16926703  0.18262556  0.30030299     1.49000
C116        C  0.09135507  0.16048088  0.24007297     0.91700
O117        O  0.18240723  0.23656585  0.16144395    -0.81900
O118        O  0.28254155  0.23403916  0.22691918    -0.75400
Al119      Al  0.17598594  0.18253660  0.19062266     1.90100
O120        O  0.24975583  0.28386427  0.18753060    -0.74500
O121        O  0.26954848  0.25823175  0.30994648    -0.74300
O122        O  0.22001344  0.29061653  0.27079920    -0.80000
O123        O  0.22219510  0.18953500  0.33221011    -0.78200
O124        O  0.19787617  0.20828061  0.24648076    -1.14300
O125        O  0.15618724  0.12304129  0.28487429    -0.73500
C126        C  0.15381972  0.10233834  0.24736192     0.97200
C127        C  0.21845925  0.27436538  0.15855433     0.93600
Al128      Al  0.25039162  0.26153456  0.24850273     1.55600
O129        O  0.11412932  0.16600917  0.20303805    -0.78200
C130        C  0.25895766  0.22609242  0.33777762     0.97700
C131        C  0.27227020  0.20799722  0.19191384     0.92600
O132        O  0.23478511  0.19361601  0.16993036    -0.83500
O133        O  0.42406718  0.14823321  0.16295494    -0.82900
C134        C  0.45881309  0.05901610  0.02871417     0.96400
O135        O  0.43173985  0.04668164  0.06354729    -0.72100
O136        O  0.40381848  0.05563257  0.14745594    -0.75600
Al137      Al  0.40219549  0.07678006  0.08605358     1.49000
C138        C  0.43584584  0.06451316  0.17518353     0.91700
O139        O  0.54010416  0.16636363  0.12442495    -0.81900
O140        O  0.49400091  0.21330329  0.04456488    -0.75400
Al141      Al  0.48063208  0.15504297  0.14003884     1.90100
O142        O  0.54017369  0.16731414  0.04764172    -0.74500
O143        O  0.42646944  0.14515513  0.99897343    -0.74300
O144        O  0.47286112  0.09690669  0.00821960    -0.80000
O145        O  0.38043378  0.07761248  0.02460824    -0.78200
O146        O  0.45507344  0.12916894  0.08526261    -1.14300
O147        O  0.37226467  0.10648991  0.10899859    -0.73500
C148        C  0.38521340  0.13354702  0.14363876     0.97200
C149        C  0.56071119  0.17194424  0.08580483     0.93600
Al150      Al  0.48082198  0.15341168  0.02982634     1.55600
O151        O  0.47259824  0.10114280  0.17039162    -0.78200
C152        C  0.38973620  0.10819084  0.99498350     0.97700
C153        C  0.50186362  0.23453586  0.08294436     0.92600
O154        O  0.49578510  0.21428830  0.12162642    -0.83500
O155        O  0.22773038  0.04901196  0.67271687    -0.82900
C156        C  0.19279257  0.92195866  0.80377514     0.96400
O157        O  0.21910939  0.93706047  0.76850368    -0.72100
O158        O  0.24624165  0.97541607  0.68543905    -0.75600
Al159      Al  0.24891462  0.99698362  0.74739864     1.49000
C160        C  0.21382541  0.95228920  0.65824991     0.91700
O161        O  0.10955259  0.95239463  0.71146390    -0.81900
O162        O  0.15932609  0.04346610  0.79315332    -0.75400
Al163      Al  0.17046638  0.99973991  0.69553967     1.90100
O164        O  0.11232836  0.95171329  0.78845060    -0.74500
O165        O  0.22702575  0.04113829  0.83494742    -0.74300
O166        O  0.17943250  0.94574132  0.82584344    -0.80000
O167        O  0.27211937  0.01860151  0.80883901    -0.78200
O168        O  0.19636795  0.99745324  0.74951417    -1.14300
O169        O  0.27920044  0.05663491  0.72601140    -0.73500
C170        C  0.26666764  0.07210878  0.69221699     0.97200
C171        C  0.09009922  0.93779894  0.75081379     0.93600
Al172      Al  0.17189276  0.99564912  0.80565408     1.55600
O173        O  0.17735287  0.95326953  0.66306651    -0.78200
C174        C  0.26406559  0.04129918  0.83777235     0.97700
C175        C  0.15276914  0.05952078  0.75586998     0.92600
O176        O  0.15744596  0.04534273  0.71640167    -0.83500
O177        O  0.37291555  0.90135753  0.49404703    -0.82900
C178        C  0.25275125  0.86661620  0.35482636     0.96400
O179        O  0.26585943  0.89235424  0.39045024    -0.72100
O180        O  0.29923307  0.91918772  0.47571388    -0.75600
Al181      Al  0.32438040  0.92173848  0.41473557     1.49000
C182        C  0.27620422  0.88720586  0.50360026     0.91700
O183        O  0.27834330  0.78369412  0.45417492    -0.81900
O184        O  0.37233917  0.83175415  0.37698353    -0.75400
Al185      Al  0.32468672  0.84442682  0.47046396     1.90100
O186        O  0.27974271  0.78588333  0.37723611    -0.74500
O187        O  0.37320690  0.89863606  0.33185521    -0.74300
O188        O  0.27767887  0.85309684  0.33554515    -0.80000
O189        O  0.34924345  0.94374543  0.35373652    -0.78200
O190        O  0.32472635  0.86953203  0.41519423    -1.14300
O191        O  0.38314313  0.95150208  0.43839860    -0.73500
C192        C  0.39760793  0.93895010  0.47298313     0.97200
C193        C  0.26496625  0.76396325  0.41491880     0.93600
Al194      Al  0.32562044  0.84465151  0.36028754     1.55600
O195        O  0.27673816  0.85084060  0.49920064    -0.78200
C196        C  0.37259641  0.93476702  0.32639106     0.97700
C197        C  0.38740305  0.82729449  0.41590198     0.92600
O198        O  0.37136202  0.83256980  0.45371800    -0.83500
O199        O  0.48885505  0.78910013  0.87260637    -0.82900
C200        C  0.52615072  0.94280026  0.97085979     0.96400
O201        O  0.51001964  0.90363305  0.98945607    -0.72100
O202        O  0.44297652  0.83200074  0.94837213    -0.75600
Al203      Al  0.50286170  0.84731343  0.96583461     1.49000
C204        C  0.42168208  0.82689548  0.91061187     0.91700
O205        O  0.51137914  0.90253884  0.82599632    -0.81900
O206        O  0.61094792  0.89686105  0.88764423    -0.75400
Al207      Al  0.50322280  0.84817045  0.85563661     1.90100
O208        O  0.57963721  0.94781578  0.85067157    -0.74500
O209        O  0.60370979  0.92325222  0.97209475    -0.74300
O210        O  0.55286776  0.95530004  0.93578553    -0.80000
O211        O  0.55715644  0.85523195  0.99573025    -0.78200
O212        O  0.52846322  0.87319506  0.91097280    -1.14300
O213        O  0.49148618  0.78826134  0.94927924    -0.73500
C214        C  0.48466337  0.76812560  0.91025931     0.97200
C215        C  0.54857938  0.93889512  0.82157678     0.93600
Al216      Al  0.58148465  0.92564023  0.91138828     1.55600
O217        O  0.44260439  0.83517808  0.87165380    -0.78200
C218        C  0.59410842  0.89163816  0.00040852     0.97700
C219        C  0.59850916  0.86960406  0.85343271     0.92600
O220        O  0.56043738  0.85572725  0.83260105    -0.83500
O221        O  0.87138897  0.04720893  0.20747566    -0.82900
C222        C  0.71537095  0.92643573  0.30312190     0.96400
O223        O  0.75295325  0.95159063  0.32411576    -0.72100
O224        O  0.82165724  0.95180708  0.28231836    -0.75600
Al225      Al  0.81056846  0.99880898  0.29980411     1.49000
C226        C  0.82971831  0.93850057  0.24407213     0.91700
O227        O  0.75891833  0.95460244  0.15946553    -0.81900
O228        O  0.76155980  0.05804544  0.22090465    -0.75400
Al229      Al  0.81255898  0.00135858  0.18961815     1.90100
O230        O  0.71162933  0.97548135  0.18321749    -0.74500
O231        O  0.73519043  0.02346393  0.30572805    -0.74300
O232        O  0.70294514  0.94008756  0.26774376    -0.80000
O233        O  0.80459153  0.04700351  0.32804606    -0.78200
O234        O  0.78598508  0.99985970  0.24454028    -1.14300
O235        O  0.87215452  0.04398469  0.28417007    -0.73500
C236        C  0.89276986  0.05993070  0.24570339     0.97200
C237        C  0.72195729  0.95428479  0.15448739     0.93600
Al238      Al  0.73281033  0.99926953  0.24441946     1.55600
O239        O  0.82665856  0.95519618  0.20548119    -0.78200
C240        C  0.76763750  0.04692805  0.33305407     0.97700
C241        C  0.78854503  0.07252510  0.18613892     0.92600
O242        O  0.80371640  0.04923810  0.16638723    -0.83500
O243        O  0.70559930  0.21463680  0.61151928    -0.82900
C244        C  0.58430524  0.05697722  0.52048323     0.96400
O245        O  0.60559457  0.09529889  0.49995574    -0.72100
O246        O  0.60581595  0.16452360  0.54089139    -0.75600
Al247      Al  0.65329971  0.15352240  0.52116104     1.49000
C248        C  0.59481177  0.17351781  0.58008221     0.91700
O249        O  0.61373213  0.10290933  0.66176129    -0.81900
O250        O  0.72009561  0.11006577  0.59877957    -0.75400
Al251      Al  0.66018293  0.15664611  0.63123077     1.90100
O252        O  0.63715221  0.05756713  0.63848669    -0.74500
O253        O  0.68407647  0.08216166  0.51531828    -0.74300
O254        O  0.60105724  0.04661617  0.55472835    -0.80000
O255        O  0.70075330  0.14827940  0.48912816    -0.78200
O256        O  0.65791917  0.13032231  0.57626004    -1.14300
O257        O  0.69901825  0.21515799  0.53493447    -0.73500
C258        C  0.71680604  0.23567518  0.57293590     0.97200
C259        C  0.61448002  0.06668868  0.66673747     0.93600
Al260      Al  0.66037845  0.07905406  0.57669911     1.55600
O261        O  0.61340133  0.17027381  0.61710361    -0.78200
C262        C  0.70367797  0.11308379  0.48546353     0.97700
C263        C  0.73417114  0.13601698  0.63409606     0.92600
O264        O  0.70925102  0.14891131  0.65443956    -0.83500
O265        O  0.13948572  0.43114707  0.33934911    -0.82900
C266        C  0.04699092  0.46570153  0.46968459     0.96400
O267        O  0.03555736  0.43914356  0.43487184    -0.72100
O268        O  0.04642362  0.41061196  0.35225670    -0.75600
Al269      Al  0.06640527  0.40992374  0.41465336     1.49000
C270        C  0.05660864  0.44193874  0.32340161     0.91700
O271        O  0.15717055  0.54670136  0.37512988    -0.81900
O272        O  0.20410459  0.50371804  0.45647605    -0.75400
Al273      Al  0.14585242  0.48755760  0.36064066     1.90100
O274        O  0.15534230  0.54763322  0.45213641    -0.74500
O275        O  0.13564571  0.43457623  0.50019055    -0.74300
O276        O  0.08430779  0.47910173  0.49184742    -0.80000
O277        O  0.06683914  0.38875678  0.47692421    -0.78200
O278        O  0.11900712  0.46276217  0.41522163    -1.14300
O279        O  0.09676668  0.38055300  0.39398391    -0.73500
C280        C  0.12421511  0.39283320  0.35961294     0.97200
C281        C  0.16190145  0.56767662  0.41319562     0.93600
Al282      Al  0.14256973  0.48871476  0.47048185     1.55600
O283        O  0.09238808  0.47912570  0.32911695    -0.78200
C284        C  0.09896306  0.39753688  0.50466009     0.97700
C285        C  0.22549119  0.50991047  0.41813715     0.92600
O286        O  0.20477035  0.50267759  0.37980812    -0.83500
O287        O  0.89191312  0.38268100  0.00309262    -0.82900
C288        C  0.86097361  0.25777929  0.13768234     0.96400
O289        O  0.88716088  0.27189437  0.10236637    -0.72100
O290        O  0.91046843  0.30474086  0.01736233    -0.75600
Al291      Al  0.91548761  0.33014772  0.07757931     1.49000
C292        C  0.87921501  0.28546065  0.98796210     0.91700
O293        O  0.77668101  0.28392762  0.04286112    -0.81900
O294        O  0.82740386  0.37868316  0.12338484    -0.75400
Al295      Al  0.83601548  0.33275925  0.02608737     1.90100
O296        O  0.77943032  0.28670874  0.11963961    -0.74500
O297        O  0.89415218  0.37612090  0.16458426    -0.74300
O298        O  0.84624857  0.28128360  0.15769698    -0.80000
O299        O  0.93983876  0.35500304  0.13738938    -0.78200
O300        O  0.86300290  0.33107625  0.07982762    -1.14300
O301        O  0.94535748  0.38835856  0.05283298    -0.73500
C302        C  0.93169917  0.40448201  0.02079669     0.97200
C303        C  0.75736344  0.27028547  0.08243938     0.93600
Al304      Al  0.83913913  0.33070927  0.13619001     1.55600
O305        O  0.84395513  0.28852954  0.99178956    -0.78200
C306        C  0.93122086  0.37659534  0.16724149     0.97700
C307        C  0.81867436  0.39284635  0.08607962     0.92600
O308        O  0.82096066  0.37678582  0.04700899    -0.83500
O309        O  0.04463052  0.24083219  0.82540154    -0.82900
C310        C  0.91917700  0.19731550  0.69015782     0.96400
O311        O  0.93440610  0.22546469  0.72376706    -0.72100
O312        O  0.97276082  0.25764211  0.80624518    -0.75600
Al313      Al  0.99449944  0.25618032  0.74484417     1.49000
C314        C  0.94815591  0.22643054  0.83416843     0.91700
O315        O  0.95055587  0.12075836  0.79264026    -0.81900
O316        O  0.04028246  0.16332888  0.71178403    -0.75400
Al317      Al  0.99662289  0.18230288  0.80470751     1.90100
O318        O  0.94706734  0.11746364  0.71603644    -0.74500
O319        O  0.03914830  0.22870792  0.66122001    -0.74300
O320        O  0.94320493  0.18261331  0.67088187    -0.80000
O321        O  0.01599699  0.27458327  0.68261447    -0.78200
O322        O  0.99473394  0.20402130  0.74800106    -1.14300
O323        O  0.05462883  0.28729721  0.76564644    -0.73500
C324        C  0.06897594  0.27711491  0.80212785     0.97200
C325        C  0.93379542  0.09827570  0.75550719     0.93600
Al326      Al  0.99272060  0.17566097  0.69464162     1.55600
O327        O  0.94831681  0.18967180  0.83177309    -0.78200
C328        C  0.03860001  0.26501107  0.65496788     0.97700
C329        C  0.05720744  0.16105442  0.75068319     0.92600
O330        O  0.04373558  0.16981461  0.78855853    -0.83500
O331        O  0.15491582  0.61904894  0.95342487    -0.82900
C332        C  0.11972093  0.73616348  0.85564756     0.96400
O333        O  0.13320388  0.71162130  0.83517128    -0.72100
O334        O  0.20078801  0.70853558  0.87642221    -0.75600
Al335      Al  0.14149794  0.66302509  0.85929045     1.49000
C336        C  0.22249480  0.72412455  0.91404070     0.91700
O337        O  0.13342163  0.71126991  0.99688276    -0.81900
O338        O  0.03337319  0.60437617  0.93618420    -0.75400
Al339      Al  0.14098790  0.66406126  0.96929893     1.90100
O340        O  0.06394650  0.68610838  0.97472264    -0.74500
O341        O  0.04172614  0.63989561  0.85186278    -0.74300
O342        O  0.09281709  0.72216519  0.89056668    -0.80000
O343        O  0.08670241  0.61546850  0.83047477    -0.78200
O344        O  0.11594870  0.66338819  0.91397748    -1.14300
O345        O  0.15550117  0.61674457  0.87647364    -0.73500
C346        C  0.16262525  0.60444995  0.91608937     0.97200
C347        C  0.09610803  0.71019479  0.00193668     0.93600
Al348      Al  0.06306190  0.66318432  0.91338442     1.55600
O349        O  0.20201658  0.71085362  0.95316542    -0.78200
C350        C  0.04991788  0.61559198  0.82530035     0.97700
C351        C  0.04570658  0.59040197  0.97140661     0.92600
O352        O  0.08343824  0.61521509  0.99260522    -0.83500
O353        O  0.03908540  0.88422812  0.28096937    -0.82900
C354        C  0.91711600  0.72939566  0.19109574     0.96400
O355        O  0.93970041  0.76709938  0.16961710    -0.72100
O356        O  0.94491471  0.83816166  0.21067581    -0.75600
Al357      Al  0.98966951  0.82403699  0.19035785     1.49000
C358        C  0.93060754  0.84304921  0.24988070     0.91700
O359        O  0.94952996  0.77075366  0.33193200    -0.81900
O360        O  0.05321815  0.77715205  0.26550240    -0.75400
Al361      Al  0.99462505  0.82492054  0.30039730     1.90100
O362        O  0.97164708  0.72523429  0.30655940    -0.74500
O363        O  0.01493476  0.74892757  0.18266773    -0.74300
O364        O  0.93347451  0.71709648  0.22412517    -0.80000
O365        O  0.03492142  0.81619311  0.15758981    -0.78200
O366        O  0.99259403  0.79940040  0.24509634    -1.14300
O367        O  0.03795643  0.88428234  0.20410804    -0.73500
C368        C  0.05357548  0.90502599  0.24242572     0.97200
C369        C  0.95001524  0.73432774  0.33606197     0.93600
Al370      Al  0.99326613  0.74727529  0.24462952     1.55600
O371        O  0.94629937  0.83648049  0.28735539    -0.78200
C372        C  0.03554274  0.77991806  0.15322951     0.97700
C373        C  0.06834531  0.80404276  0.30013157     0.92600
O374        O  0.04438214  0.81777737  0.32107758    -0.83500
O375        O  0.77587864  0.50285913  0.61567830    -0.82900
C376        C  0.93181347  0.53619340  0.51997506     0.96400
O377        O  0.89338129  0.52162060  0.50001224    -0.72100
O378        O  0.82196761  0.45366114  0.54092866    -0.75600
Al379      Al  0.83632854  0.51346601  0.52352231     1.49000
C380        C  0.81353265  0.43271607  0.57955344     0.91700
O381        O  0.88703889  0.51832759  0.66415458    -0.81900
O382        O  0.88694748  0.62192151  0.60569486    -0.75400
Al383      Al  0.83404129  0.51370235  0.63398756     1.90100
O384        O  0.93625689  0.58589376  0.64072470    -0.74500
O385        O  0.91229777  0.61416001  0.52021823    -0.74300
O386        O  0.94391740  0.56222396  0.55518129    -0.80000
O387        O  0.84477256  0.56800059  0.49373914    -0.78200
O388        O  0.86109907  0.53889160  0.57920530    -1.14300
O389        O  0.77562673  0.50030995  0.53892790    -0.73500
C390        C  0.75496775  0.49605945  0.57740105     0.97200
C391        C  0.92530060  0.55350134  0.66854790     0.93600
Al392      Al  0.91462272  0.59101795  0.58028961     1.55600
O393        O  0.81864179  0.45366524  0.61756449    -0.78200
C394        C  0.88174725  0.60489217  0.49031789     0.97700
C395        C  0.86009712  0.60942353  0.64054638     0.92600
O396        O  0.84384336  0.57023695  0.65873500    -0.83500
C397        C  0.91997681  0.68429925  0.45979731    -0.10300
C398        C  0.89157416  0.63771072  0.45086710     0.05900
C399        C  0.87954538  0.62382481  0.40363525    -0.04100
C400        C  0.89749659  0.65590733  0.36683746    -0.08500
C401        C  0.92671832  0.70230487  0.37593289     0.05000
C402        C  0.93733388  0.71629968  0.42312521    -0.03500
Br403      Br  0.97987966  0.77800126  0.43916535    -0.03200
H404        H  0.93030493  0.69578948  0.49556879     0.08900
H405        H  0.88951823  0.64438620  0.33075316     0.06900
Br406      Br  0.84246579  0.56123888  0.38672792    -0.03700
C407        C  0.06000492  0.75406457  0.03029505    -0.10300
C408        C  0.08843193  0.73588931  0.03980854     0.05900
C409        C  0.10416481  0.73830212  0.08633934    -0.04100
C410        C  0.08871510  0.75542694  0.12248428    -0.08500
C411        C  0.05870666  0.77170808  0.11317168     0.05000
C412        C  0.04564938  0.77233085  0.06623485    -0.03500
Br413      Br  0.00450852  0.79341516  0.04994662    -0.03200
H414        H  0.04766226  0.75274081  0.99486052     0.08900
H415        H  0.09881330  0.75443457  0.15841582     0.06900
Br416      Br  0.14288863  0.71461945  0.10379591    -0.03700
C417        C  0.03355168  0.59208693  0.74068879    -0.10300
C418        C  0.01716068  0.58998026  0.78660174     0.05900
C419        C  0.96935331  0.56820769  0.79342655    -0.04100
C420        C  0.93960693  0.55290065  0.75465354    -0.08500
C421        C  0.95637432  0.55914329  0.70843553     0.05000
C422        C  0.00375566  0.57712954  0.70187639    -0.03500
Br423      Br  0.02956538  0.58225653  0.64057405    -0.03200
H424        H  0.06996121  0.60784614  0.73459934     0.08900
H425        H  0.90330807  0.53851757  0.76057832     0.06900
Br426      Br  0.94261963  0.55874601  0.85494763    -0.03700
C427        C  0.91755390  0.21622845  0.91632217    -0.10300
C428        C  0.92185729  0.23486127  0.87118496     0.05900
C429        C  0.90525691  0.26524522  0.86401156    -0.04100
C430        C  0.88723618  0.27787588  0.90182436    -0.08500
C431        C  0.88651753  0.26206058  0.94756989     0.05000
C432        C  0.90100673  0.23018917  0.95435962    -0.03500
Br433      Br  0.90064857  0.20605407  0.01543066    -0.03200
H434        H  0.92986827  0.19292460  0.92279763     0.08900
H435        H  0.87668572  0.30266869  0.89600843     0.06900
Br436      Br  0.90745575  0.29223838  0.80394113    -0.03700
C437        C  0.99359538  0.51133056  0.94953885    -0.10300
C438        C  0.01648507  0.54318118  0.98541176     0.05900
C439        C  0.01236624  0.52865725  0.03239510    -0.04100
C440        C  0.98505726  0.48285934  0.04272568    -0.08500
C441        C  0.96188799  0.45127489  0.00690378     0.05000
C442        C  0.96644455  0.46552872  0.95992091    -0.03500
Br443      Br  0.93912057  0.42382226  0.90865276    -0.03200
H444        H  0.99773101  0.52195480  0.91305205     0.08900
H445        H  0.98104216  0.47195225  0.07914138     0.06900
Br446      Br  0.04089994  0.56943959  0.08408468    -0.03700
C447        C  0.99980996  0.49868920  0.44707921    -0.10300
C448        C  0.01717791  0.48312548  0.48292140     0.05900
C449        C  0.00709593  0.48618233  0.53019225    -0.04100
C450        C  0.97913666  0.50381104  0.54090585    -0.08500
C451        C  0.96179549  0.51942992  0.50533320     0.05000
C452        C  0.97246149  0.51725010  0.45798866    -0.03500
Br453      Br  0.95327431  0.54168840  0.40786637    -0.03200
H454        H  0.00851505  0.49740556  0.41055019     0.08900
H455        H  0.97002184  0.50446087  0.57739130     0.06900
Br456      Br  0.02830722  0.46466013  0.58120703    -0.03700
C457        C  0.06910359  0.31746124  0.53215202    -0.10300
C458        C  0.09198179  0.36413675  0.54268229     0.05900
C459        C  0.10285744  0.37717464  0.59015950    -0.04100
C460        C  0.08792981  0.34411428  0.62587612    -0.08500
C461        C  0.06315654  0.29746948  0.61559934     0.05000
C462        C  0.05541781  0.28437180  0.56789532    -0.03500
Br463      Br  0.02249526  0.22182547  0.54997298    -0.03200
H464        H  0.06059239  0.30659756  0.49593665     0.08900
H465        H  0.09402819  0.35498218  0.66226338     0.06900
Br466      Br  0.13364935  0.43954032  0.60892073    -0.03700
C467        C  0.00914452  0.40770290  0.20066504    -0.10300
C468        C  0.96468637  0.40067996  0.20579845     0.05900
C469        C  0.95282730  0.41260889  0.24921033    -0.04100
C470        C  0.98417429  0.42839139  0.28658840    -0.08500
C471        C  0.02758059  0.43327605  0.28159530     0.05000
C472        C  0.04018806  0.42343070  0.23797629    -0.03500
Br473      Br  0.09777176  0.42640062  0.22899623    -0.03200
H474        H  0.01939463  0.39908389  0.16795008     0.08900
H475        H  0.97404380  0.43537584  0.32030615     0.06900
Br476      Br  0.89376872  0.40522172  0.26174504    -0.03700
C477        C  0.85151753  0.20650822  0.68738589    -0.10300
C478        C  0.87224754  0.18138171  0.67415533     0.05900
C479        C  0.84655129  0.14069719  0.64884542    -0.04100
C480        C  0.80126663  0.12613089  0.63795839    -0.08500
C481        C  0.78068504  0.15142285  0.65090847     0.05000
C482        C  0.80645269  0.19230394  0.67581340    -0.03500
Br483      Br  0.78447701  0.23254125  0.69265466    -0.03200
H484        H  0.87071560  0.23805945  0.70640920     0.08900
H485        H  0.78205760  0.09470824  0.61866137     0.06900
Br486      Br  0.86956013  0.10232268  0.62815767    -0.03700
C487        C  0.75095247  0.30818742  0.61686935    -0.10300
C488        C  0.74796827  0.28586667  0.57431568     0.05900
C489        C  0.77140905  0.31255566  0.53472461    -0.04100
C490        C  0.79418307  0.36016992  0.53769996    -0.08500
C491        C  0.79478924  0.38246707  0.57979449     0.05000
C492        C  0.77361419  0.35538164  0.62009160    -0.03500
Br493      Br  0.77046274  0.37894084  0.68059158    -0.03200
H494        H  0.73352018  0.28872630  0.64799109     0.08900
H495        H  0.81083480  0.37985335  0.50643580     0.06900
Br496      Br  0.77463684  0.28622603  0.47620486    -0.03700
C497        C  0.79698661  0.18443064  0.16117577    -0.10300
C498        C  0.84397398  0.21141851  0.15318319     0.05900
C499        C  0.87209842  0.19201214  0.15409642    -0.04100
C500        C  0.85274222  0.14591719  0.16291175    -0.08500
C501        C  0.80574452  0.11895052  0.17085395     0.05000
C502        C  0.77760745  0.13829082  0.16968404    -0.03500
Br503      Br  0.71248006  0.10296409  0.17623572    -0.03200
H504        H  0.77497984  0.19896329  0.15892012     0.08900
H505        H  0.87471717  0.13134697  0.16506942     0.06900
Br506      Br  0.93709894  0.22695005  0.14604835    -0.03700
C507        C  0.73775713  0.09658265  0.36203676    -0.10300
C508        C  0.76038064  0.07230268  0.37178671     0.05900
C509        C  0.76960644  0.06754380  0.41920987    -0.04100
C510        C  0.75326268  0.08362093  0.45554961    -0.08500
C511        C  0.72859274  0.10587079  0.44595719     0.05000
C512        C  0.72269670  0.11400277  0.39842323    -0.03500
Br513      Br  0.69058023  0.14482326  0.38100982    -0.03200
H514        H  0.73040840  0.10074191  0.32587345     0.08900
H515        H  0.75831790  0.07706907  0.49171765     0.06900
Br516      Br  0.79983705  0.03490602  0.43675208    -0.03700
C517        C  0.87660250  0.86154125  0.20865417    -0.10300
C518        C  0.89719318  0.85952762  0.25106269     0.05900
C519        C  0.88878086  0.87770784  0.29208920    -0.04100
C520        C  0.86425147  0.90057781  0.28902111    -0.08500
C521        C  0.84706155  0.90599540  0.24590509     0.05000
C522        C  0.85147014  0.88400673  0.20584115    -0.03500
Br523      Br  0.82368785  0.88254800  0.14644528    -0.03200
H524        H  0.88102137  0.84657321  0.17697478     0.08900
H525        H  0.86062498  0.91618903  0.32061265     0.06900
Br526      Br  0.91169974  0.87586118  0.35346614    -0.03700
C527        C  0.67338394  0.92196908  0.03065490    -0.10300
C528        C  0.62617359  0.89905219  0.03972191     0.05900
C529        C  0.61126689  0.88956566  0.08691839    -0.04100
C530        C  0.64316587  0.90584466  0.12370743    -0.08500
C531        C  0.69032453  0.93043974  0.11473106     0.05000
C532        C  0.70533489  0.93702762  0.06750201    -0.03500
Br533      Br  0.76882154  0.97055782  0.05114730    -0.03200
H534        H  0.68552118  0.92960327  0.99464295     0.08900
H535        H  0.63096563  0.90059134  0.15972534     0.06900
Br536      Br  0.54787984  0.85863431  0.10363889    -0.03700
C537        C  0.55912336  0.98983096  0.69873239    -0.10300
C538        C  0.59133500  0.03560222  0.70702074     0.05900
C539        C  0.60588939  0.04942994  0.75353957    -0.04100
C540        C  0.58902925  0.01781360  0.79042166    -0.08500
C541        C  0.55790205  0.97164858  0.78228299     0.05000
C542        C  0.54224297  0.95794632  0.73572389    -0.03500
Br543      Br  0.50211085  0.89570179  0.71943122    -0.03200
H544        H  0.54838183  0.97847219  0.66294726     0.08900
H545        H  0.60213051  0.02914105  0.82560341     0.06900
Br546      Br  0.65336082  0.10985371  0.76780105    -0.03700
C547        C  0.34625817  0.79231279  0.86981602    -0.10300
C548        C  0.37087425  0.80734283  0.91202257     0.05900
C549        C  0.34560230  0.79838872  0.95458309    -0.04100
C550        C  0.29766500  0.77316247  0.95400812    -0.08500
C551        C  0.27312482  0.75614863  0.91192320     0.05000
C552        C  0.29844683  0.76713023  0.86917162    -0.03500
Br553      Br  0.27163811  0.74758434  0.80784553    -0.03200
H554        H  0.36439525  0.79853854  0.83670657     0.08900
H555        H  0.27950191  0.76578668  0.98721022     0.06900
Br556      Br  0.37327759  0.81845367  0.01544468    -0.03700
C557        C  0.18588255  0.87611974  0.35075486    -0.10300
C558        C  0.20695810  0.85160811  0.33682691     0.05900
C559        C  0.18202004  0.81141613  0.31066762    -0.04100
C560        C  0.13666818  0.79638272  0.30005034    -0.08500
C561        C  0.11523360  0.82024323  0.31528277     0.05000
C562        C  0.14033716  0.86059849  0.34118233    -0.03500
Br563      Br  0.11638836  0.89743154  0.36459456    -0.03200
H564        H  0.20482922  0.90751036  0.36995312     0.08900
H565        H  0.11793540  0.76541589  0.28000330     0.06900
Br566      Br  0.20580771  0.77378953  0.28952389    -0.03700
C567        C  0.50634933  0.00017046  0.54290405    -0.10300
C568        C  0.53761313  0.02459929  0.50689682     0.05900
C569        C  0.52287840  0.01923569  0.45997794    -0.04100
C570        C  0.47687260  0.99114328  0.45011964    -0.08500
C571        C  0.44526730  0.96784460  0.48632008     0.05000
C572        C  0.46039699  0.97165788  0.53301819    -0.03500
Br573      Br  0.42010785  0.94123056  0.58495416    -0.03200
H574        H  0.51750205  0.00429418  0.57927152     0.08900
H575        H  0.46580496  0.98698258  0.41370797     0.06900
Br576      Br  0.56405193  0.04710107  0.40803641    -0.03700
C577        C  0.20333707  0.69042296  0.44927979    -0.10300
C578        C  0.23377006  0.71395559  0.41222537     0.05900
C579        C  0.23623655  0.68851046  0.37407280    -0.04100
C580        C  0.20936963  0.64140113  0.37390742    -0.08500
C581        C  0.18077173  0.61762438  0.41182908     0.05000
C582        C  0.17705739  0.64276240  0.44947531    -0.03500
Br583      Br  0.13675316  0.61427553  0.50190940    -0.03200
H584        H  0.20062851  0.70909135  0.47869074     0.08900
H585        H  0.21363531  0.62304719  0.34513810     0.06900
Br586      Br  0.27987452  0.71406729  0.32356867    -0.03700
C587        C  0.20610834  0.92643670  0.57392921    -0.10300
C588        C  0.22100788  0.92621810  0.62004341     0.05900
C589        C  0.24816050  0.90588199  0.62770995    -0.04100
C590        C  0.26321874  0.89051299  0.58962177    -0.08500
C591        C  0.25159248  0.89442189  0.54323292     0.05000
C592        C  0.22111768  0.91074436  0.53584838    -0.03500
Br593      Br  0.19864521  0.91153353  0.47431054    -0.03200
H594        H  0.18457496  0.94090497  0.56708543     0.08900
H595        H  0.28594905  0.87735388  0.59618302     0.06900
Br596      Br  0.26579552  0.89776120  0.68954985    -0.03700
C597        C  0.16216914  0.84199281  0.78217866    -0.10300
C598        C  0.17554931  0.87486272  0.81771963     0.05900
C599        C  0.17034933  0.86171963  0.86522359    -0.04100
C600        C  0.15125741  0.81604861  0.87648579    -0.08500
C601        C  0.13781188  0.78316748  0.84102297     0.05000
C602        C  0.14350202  0.79627752  0.79349215    -0.03500
Br603      Br  0.12405568  0.75314129  0.74307128    -0.03200
H604        H  0.16540322  0.85182527  0.74547491     0.08900
H605        H  0.14793734  0.80624014  0.91325684     0.06900
Br606      Br  0.19165581  0.90476531  0.91582507    -0.03700
C607        C  0.13440528  0.11390698  0.71529132    -0.10300
C608        C  0.13666005  0.09336230  0.75756719     0.05900
C609        C  0.11952805  0.10280715  0.79897977    -0.04100
C610        C  0.09628955  0.12720257  0.79615621    -0.08500
C611        C  0.09027222  0.14396325  0.75299659     0.05000
C612        C  0.11238989  0.13951288  0.71288654    -0.03500
Br613      Br  0.11511813  0.16848544  0.65399657    -0.03200
H614        H  0.14908789  0.10932998  0.68338505     0.08900
H615        H  0.08115163  0.13137437  0.82795511     0.06900
Br616      Br  0.12454610  0.08249773  0.86068536    -0.03700
C617        C  0.48084544  0.00208349  0.04703664    -0.10300
C618        C  0.47617778  0.02963132  0.01324719     0.05900
C619        C  0.49086721  0.03040164  0.96670653    -0.04100
C620        C  0.50825765  0.00263575  0.95451842    -0.08500
C621        C  0.51151417  0.97395635  0.98782793     0.05000
C622        C  0.49864165  0.97451080  0.03478833    -0.03500
Br623      Br  0.50698029  0.94097392  0.08424635    -0.03200
H624        H  0.47144317  0.00261930  0.08335543     0.08900
H625        H  0.51797695  0.00250758  0.91823009     0.06900
Br626      Br  0.48600082  0.06613910  0.91705076    -0.03700
C627        C  0.37466715  0.10614680  0.90829279    -0.10300
C628        C  0.35791966  0.09859729  0.95466941     0.05900
C629        C  0.31014867  0.07598264  0.96143356    -0.04100
C630        C  0.28039622  0.06039460  0.92280443    -0.08500
C631        C  0.29697378  0.06536482  0.87666955     0.05000
C632        C  0.34479917  0.08935561  0.86956270    -0.03500
Br633      Br  0.37120595  0.10004695  0.80777600    -0.03200
H634        H  0.41117342  0.12307484  0.90219386     0.08900
H635        H  0.24389579  0.04204606  0.92910174     0.06900
Br636      Br  0.28334030  0.06451453  0.02285294    -0.03700
C637        C  0.42650949  0.01232312  0.29642935    -0.10300
C638        C  0.39701213  0.96620500  0.28690075     0.05900
C639        C  0.38587488  0.95239774  0.23973466    -0.04100
C640        C  0.40111530  0.98488504  0.20363902    -0.08500
C641        C  0.42851872  0.03142732  0.21329604     0.05000
C642        C  0.44296832  0.04476793  0.26013145    -0.03500
Br643      Br  0.48133203  0.10694476  0.27761827    -0.03200
H644        H  0.43541343  0.02335900  0.33253802     0.08900
H645        H  0.39001118  0.97380897  0.16789990     0.06900
Br646      Br  0.34599434  0.89016410  0.22316159    -0.03700
C647        C  0.63491853  0.20411569  0.12760372    -0.10300
C648        C  0.61051743  0.18785607  0.08547236     0.05900
C649        C  0.63531823  0.19197889  0.04375079    -0.04100
C650        C  0.68312202  0.21682585  0.04410898    -0.08500
C651        C  0.70750298  0.23692672  0.08554375     0.05000
C652        C  0.68257464  0.22780668  0.12831726    -0.03500
Br653      Br  0.70969640  0.24765875  0.18949814    -0.03200
H654        H  0.61686379  0.20017432  0.16037888     0.08900
H655        H  0.70128016  0.22147908  0.01125645     0.06900
Br656      Br  0.60689378  0.16471618  0.98493186    -0.03700
C657        C  0.28195971  0.14503055  0.16560475    -0.10300
C658        C  0.30246891  0.19067945  0.17882036     0.05900
C659        C  0.35020269  0.21613252  0.18475086    -0.04100
C660        C  0.37650381  0.19636879  0.17417521    -0.03100
C661        C  0.35593671  0.15099753  0.15985890     0.05000
C662        C  0.30811879  0.12472661  0.15759437    -0.03500
Br663      Br  0.27654348  0.06020215  0.14966698    -0.03200
H664        H  0.24512521  0.12429629  0.16396432     0.08900
H665        H  0.41335801  0.21682172  0.17657568     0.06900
Br666      Br  0.38171773  0.27772525  0.20654643    -0.03700
C667        C  0.18748069  0.38203940  0.33535856    -0.10300
C668        C  0.14075740  0.36290334  0.34459875     0.05900
C669        C  0.11205441  0.31552784  0.34405655    -0.04100
C670        C  0.13022705  0.28823434  0.33258030    -0.08500
C671        C  0.17675603  0.30740365  0.32251832     0.05000
C672        C  0.20583293  0.35458047  0.32512678    -0.03500
Br673      Br  0.27090850  0.38275323  0.31904495    -0.03200
H674        H  0.21006974  0.41836517  0.33793017     0.08900
H675        H  0.10766231  0.25190091  0.33035520     0.06900
Br676      Br  0.04774196  0.28605955  0.35691385    -0.03700
C677        C  0.09241203  0.97804013  0.28635349    -0.10300
C678        C  0.08651296  0.95514233  0.24350022     0.05900
C679        C  0.10907128  0.98147065  0.20325830    -0.04100
C680        C  0.13277062  0.02915352  0.20583229    -0.08500
C681        C  0.13563123  0.05205798  0.24816989     0.05000
C682        C  0.11650556  0.02537992  0.28923300    -0.03500
Br683      Br  0.11916637  0.04983897  0.35087396    -0.03200
H684        H  0.07645884  0.95903575  0.31811255     0.08900
H685        H  0.14811248  0.04839517  0.17400566     0.06900
Br686      Br  0.10974869  0.95491182  0.14392861    -0.03700
C687        C  0.01752028  0.14109934  0.27936922    -0.10300
C688        C  0.04066606  0.14029293  0.23840650     0.05900
C689        C  0.01412955  0.11530670  0.19929276    -0.04100
C690        C  0.96642566  0.09188218  0.20222157    -0.08500
C691        C  0.94333554  0.09098329  0.24384097     0.05000
C692        C  0.96969789  0.11652311  0.28263728    -0.03500
Br693      Br  0.94306401  0.11907466  0.34137539    -0.03200
H694        H  0.03681680  0.15983157  0.30997670     0.08900
H695        H  0.94725106  0.07203033  0.17208040     0.06900
Br696      Br  0.03962598  0.10719839  0.14208392    -0.03700
C697        C  0.32489836  0.15043883  0.71174722    -0.10300
C698        C  0.29740144  0.11899255  0.67736650     0.05900
C699        C  0.29862265  0.13365592  0.63083409    -0.04100
C700        C  0.32630275  0.17930177  0.61983140    -0.08500
C701        C  0.35356872  0.21087821  0.65425997     0.05000
C702        C  0.35316414  0.19602035  0.70061804    -0.03500
Br703      Br  0.38832211  0.23599753  0.75079273    -0.03200
H704        H  0.32365323  0.13969749  0.74792149     0.08900
H705        H  0.32726927  0.18998715  0.58368398     0.06900
Br706      Br  0.26577997  0.09302534  0.58020087    -0.03700
C707        C  0.30665394  0.24513946  0.46116281    -0.10300
C708        C  0.35364345  0.26450836  0.45229313     0.05900
C709        C  0.36847557  0.26687029  0.40533829    -0.04100
C710        C  0.33656775  0.25139344  0.36860222    -0.08500
C711        C  0.28980710  0.23327454  0.37760549     0.05000
C712        C  0.27492329  0.22990779  0.42443638    -0.03500
Br713      Br  0.21269038  0.21086627  0.43973290    -0.03200
H714        H  0.29468473  0.24385817  0.49682317     0.08900
H715        H  0.34852547  0.25539574  0.33256420     0.06900
Br716      Br  0.43181430  0.29569391  0.38831934    -0.03700
C717        C  0.63138750  0.44741515  0.61896092    -0.10300
C718        C  0.60731498  0.42980489  0.57686817     0.05900
C719        C  0.63275607  0.44095799  0.53421062    -0.04100
C720        C  0.68055189  0.46523963  0.53531229    -0.08500
C721        C  0.70472421  0.47928424  0.57788169     0.05000
C722        C  0.67919289  0.47172203  0.62003749    -0.03500
Br723      Br  0.70583455  0.49087422  0.68137084    -0.03200
H724        H  0.61293334  0.44051509  0.65194183     0.08900
H725        H  0.69892821  0.47119113  0.50239151     0.06900
Br726      Br  0.60606932  0.42254904  0.47264980    -0.03700
C727        C  0.53385872  0.23655387  0.61990871    -0.10300
C728        C  0.51456658  0.24068162  0.57768186     0.05900
C729        C  0.51563692  0.21600319  0.53818691    -0.04100
C730        C  0.53969238  0.19223802  0.54047671    -0.08500
C731        C  0.56237678  0.19144943  0.58187004     0.05000
C732        C  0.55724675  0.21252530  0.62253664    -0.03500
Br733      Br  0.58329060  0.21334035  0.68291040    -0.03200
H734        H  0.53266957  0.25399039  0.65123855     0.08900
H735        H  0.54158651  0.17521392  0.50912966     0.06900
Br736      Br  0.48426669  0.21225403  0.48060825    -0.03700
C737        C  0.39631595  0.42222411  0.70148698    -0.10300
C738        C  0.42345534  0.40243002  0.71050753     0.05900
C739        C  0.43705471  0.40214975  0.75749250    -0.04100
C740        C  0.42100708  0.41834409  0.79413171    -0.08500
C741        C  0.39266758  0.43668141  0.78516166     0.05000
C742        C  0.38155474  0.43975998  0.73796852    -0.03500
Br743      Br  0.34260453  0.46356701  0.72193519    -0.03200
H744        H  0.38536476  0.42291902  0.66577017     0.08900
H745        H  0.42968322  0.41535936  0.83021285     0.06900
Br746      Br  0.47387462  0.37623766  0.77445027    -0.03700
C747        C  0.25247621  0.35452893  0.13073069    -0.10300
C748        C  0.22618582  0.30786013  0.12067389     0.05900
C749        C  0.21359184  0.29465905  0.07349125    -0.04100
C750        C  0.23005545  0.32731176  0.03751242    -0.08500
C751        C  0.25828453  0.37356789  0.04732265     0.05000
C752        C  0.26811303  0.38727511  0.09471592    -0.03500
Br753      Br  0.30681471  0.44963211  0.11172132    -0.03200
H754        H  0.26251351  0.36552334  0.16673206     0.08900
H755        H  0.22233310  0.31626626  0.00120575     0.06900
Br756      Br  0.17852461  0.23235421  0.05512159    -0.03700
C757        C  0.19642255  0.34811918  0.80048333    -0.10300
C758        C  0.20454621  0.36587238  0.84597675     0.05900
C759        C  0.16805653  0.35492800  0.87701766    -0.04100
C760        C  0.12361980  0.32542629  0.86238987    -0.08500
C761        C  0.11547855  0.30754439  0.81691334     0.05000
C762        C  0.15200296  0.31875408  0.78578619    -0.03500
Br763      Br  0.14324163  0.29280734  0.72405206    -0.03200
H764        H  0.22462890  0.35646804  0.77682463     0.08900
H765        H  0.09542405  0.31709854  0.88606837     0.06900
Br766      Br  0.17704151  0.38153695  0.93842651    -0.03700
C767        C  0.43237875  0.64549525  0.86844107    -0.10300
C768        C  0.42066539  0.62203852  0.91154320     0.05900
C769        C  0.43685234  0.64780393  0.95357780    -0.04100
C770        C  0.46000170  0.69511708  0.95167621    -0.08500
C771        C  0.46830526  0.71853312  0.90888066     0.05000
C772        C  0.45618825  0.69296797  0.86656669    -0.03500
Br773      Br  0.46960204  0.71939532  0.80458057    -0.03200
H774        H  0.42159293  0.62681986  0.83566632     0.08900
H775        H  0.46998458  0.71371092  0.98454777     0.06900
Br776      Br  0.42767054  0.62223746  0.01578190    -0.03700
C777        C  0.23693104  0.55658619  0.95687745    -0.10300
C778        C  0.23287578  0.52806901  0.91950559     0.05900
C779        C  0.20181096  0.52136600  0.88285297    -0.04100
C780        C  0.17789483  0.54517729  0.88303878    -0.08500
C781        C  0.18371699  0.57538320  0.91950561     0.05000
C782        C  0.21325388  0.58023316  0.95726612    -0.03500
Br783      Br  0.22775624  0.62199790  0.00864269    -0.03200
H784        H  0.26084465  0.56268165  0.98512534     0.08900
H785        H  0.15506685  0.54050584  0.85413564     0.06900
Br786      Br  0.18967489  0.47966582  0.83218821    -0.03700
C787        C  0.65228265  0.84557812  0.87812864    -0.10300
C788        C  0.62789304  0.85113693  0.84119047     0.05900
C789        C  0.63067505  0.83685926  0.79556801    -0.04100
C790        C  0.65774466  0.81736258  0.78778410    -0.08500
C791        C  0.68233669  0.81213757  0.82482922     0.05000
C792        C  0.67933719  0.82631157  0.87038857    -0.03500
Br793      Br  0.70923360  0.81840869  0.92399433    -0.03200
H794        H  0.64961735  0.85545200  0.91369381     0.08900
H795        H  0.66074076  0.80759473  0.75228743     0.06900
Br796      Br  0.60120187  0.84583395  0.74227114    -0.03700
C797        C  0.79807778  0.62089262  0.66856428    -0.10300
C798        C  0.84457432  0.63968113  0.65830121     0.05900
C799        C  0.87374963  0.68689719  0.66111406    -0.04100
C800        C  0.85592824  0.71436136  0.67404123    -0.08500
C801        C  0.80946343  0.69538021  0.68463393     0.05000
C802        C  0.78027839  0.64824817  0.68156664    -0.03500
Br803      Br  0.71559731  0.61979197  0.69162589    -0.03200
H804        H  0.77518132  0.58483757  0.66489643     0.08900
H805        H  0.87867607  0.75056856  0.67718400     0.06900
Br806      Br  0.93829913  0.71535130  0.65053223    -0.03700
C807        C  0.85855541  0.97510938  0.79774973    -0.10300
C808        C  0.84851554  0.95106916  0.75491801     0.05900
C809        C  0.86152799  0.97671582  0.71268835    -0.04100
C810        C  0.88724842  0.02415402  0.71425949    -0.08500
C811        C  0.90029408  0.04815995  0.75703983     0.05000
C812        C  0.88362809  0.02278785  0.79923528    -0.03500
Br813      Br  0.89397896  0.05021912  0.86037875    -0.03200
H814        H  0.84817881  0.95671267  0.83078311     0.08900
H815        H  0.89845900  0.04230024  0.68118631     0.06900
Br816      Br  0.84696844  0.95026982  0.65094165    -0.03700
C817        C  0.01807608  0.91523119  0.79323675    -0.10300
C818        C  0.03972282  0.90790680  0.75477874     0.05900
C819        C  0.01242402  0.87514409  0.72110842    -0.04100
C820        C  0.96455132  0.85244883  0.72518369    -0.08500
C821        C  0.94296302  0.86140488  0.76277256     0.05000
C822        C  0.97064102  0.89285430  0.79744042    -0.03500
Br823      Br  0.94684358  0.91139187  0.84890856    -0.03200
H824        H  0.03823762  0.94051740  0.81937932     0.08900
H825        H  0.94410786  0.82822254  0.69837667     0.06900
Br826      Br  0.03859017  0.85895446  0.67016630    -0.03700
C827        C  0.85981624  0.68289288  0.13269518    -0.10300
C828        C  0.87014168  0.69928692  0.17857173     0.05900
C829        C  0.83564740  0.68492756  0.21297655    -0.04100
C830        C  0.79091730  0.65405691  0.20091721    -0.08500
C831        C  0.78053078  0.63760838  0.15503286     0.05000
C832        C  0.81519909  0.65146029  0.12083451    -0.03500
Br833      Br  0.80432586  0.62561326  0.05898833    -0.03200
H834        H  0.88668647  0.69331520  0.10667130     0.08900
H835        H  0.76411141  0.64348703  0.22706473     0.06900
Br836      Br  0.84740126  0.70794008  0.27610663    -0.03700
C837        C  0.73993624  0.65155055  0.87792601    -0.10300
C838        C  0.76130486  0.69806118  0.88884052     0.05900
C839        C  0.76854261  0.71083064  0.93664085    -0.04100
C840        C  0.75101992  0.67751158  0.97201575    -0.08500
C841        C  0.72728995  0.63108170  0.96104662     0.05000
C842        C  0.72370444  0.61823840  0.91340125    -0.03500
Br843      Br  0.69300120  0.55584136  0.89468196    -0.03200
H844        H  0.73420788  0.64095131  0.84138910     0.08900
H845        H  0.75441424  0.68798795  0.00852747     0.06900
Br846      Br  0.79763763  0.77295989  0.95585068    -0.03700
C847        C  0.45527390  0.48264521  0.03660570    -0.10300
C848        C  0.44746996  0.48504628  0.98863800     0.05900
C849        C  0.48389548  0.50171561  0.95633954    -0.04100
C850        C  0.52758372  0.51495754  0.97225879    -0.08500
C851        C  0.53550116  0.51268532  0.02014969     0.05000
C852        C  0.49908822  0.49613242  0.05261010    -0.03500
Br853      Br  0.50663007  0.48865328  0.11845716    -0.03200
H854        H  0.42719924  0.46958127  0.06139017     0.08900
H855        H  0.55565276  0.52834976  0.94745433     0.06900
Br856      Br  0.47670673  0.51073767  0.89087365    -0.03700
C857        C  0.78035267  0.42741586  0.13050117    -0.10300
C858        C  0.80160590  0.42563431  0.08879076     0.05900
C859        C  0.80133037  0.45139202  0.04980061    -0.04100
C860        C  0.77619784  0.47403692  0.05174311    -0.08500
C861        C  0.75182872  0.47280903  0.09245509     0.05000
C862        C  0.75586790  0.45043014  0.13287288    -0.03500
Br863      Br  0.72598554  0.44560851  0.19198544    -0.03200
H864        H  0.78055804  0.40854729  0.16119058     0.08900
H865        H  0.77509279  0.49209373  0.02080026     0.06900
Br866      Br  0.83557343  0.45808004  0.99345912    -0.03700
C867        C  0.51378019  0.30558754  0.12194863    -0.10300
C868        C  0.52177356  0.28449911  0.08332028     0.05900
C869        C  0.55369677  0.31213624  0.04886970    -0.04100
C870        C  0.57623477  0.35909832  0.05332693    -0.08500
C871        C  0.56913754  0.38040251  0.09218694     0.05000
C872        C  0.53716905  0.35304955  0.12671047    -0.03500
Br873      Br  0.52353143  0.37835653  0.18025125    -0.03200
H874        H  0.48981827  0.28497668  0.14914676     0.08900
H875        H  0.60150330  0.37913975  0.02690523     0.06900
Br876      Br  0.57312918  0.28880468  0.99777673    -0.03700
C877        C  0.57428420  0.57237998  0.30251969    -0.10300
C878        C  0.55738484  0.60169757  0.29256360     0.05900
C879        C  0.55544630  0.61282764  0.24514423    -0.04100
C880        C  0.57236327  0.59674937  0.20931431    -0.08500
C881        C  0.59073702  0.56857515  0.21926696     0.05000
C882        C  0.59022101  0.55536372  0.26656071    -0.03500
Br883      Br  0.61501559  0.51797335  0.28486589    -0.03200
H884        H  0.57653812  0.56383895  0.33884333     0.08900
H885        H  0.57242418  0.60754654  0.17335904     0.06900
Br886      Br  0.53437017  0.65365161  0.22802363    -0.03700
C887        C  0.64260684  0.77180709  0.57248949    -0.10300
C888        C  0.62192704  0.72634547  0.55763176     0.05900
C889        C  0.63191207  0.69662511  0.58237966    -0.04100
C890        C  0.66473419  0.71282059  0.61759912    -0.08500
C891        C  0.68758109  0.75852618  0.63127322     0.05000
C892        C  0.67492846  0.78794277  0.60950157    -0.03500
Br893      Br  0.69772960  0.84864628  0.63137083    -0.03200
H894        H  0.63397220  0.79482777  0.55518897     0.08900
H895        H  0.67218521  0.68885344  0.63472603     0.06900
Br896      Br  0.59959658  0.63240099  0.57196757    -0.03700
C897        C  0.63894416  0.79965701  0.30383316    -0.10300
C898        C  0.63273662  0.79086731  0.35217419     0.05900
C899        C  0.65345565  0.82696676  0.38444983    -0.04100
C900        C  0.68021045  0.87116008  0.36787419    -0.08500
C901        C  0.68620074  0.87992574  0.31947072     0.05000
C902        C  0.66587912  0.84371189  0.28726323    -0.03500
Br903      Br  0.67649432  0.85145460  0.22060595    -0.03200
H904        H  0.62332487  0.77202180  0.27888527     0.08900
H905        H  0.69575394  0.89880730  0.39276592     0.06900
Br906      Br  0.64378168  0.81865890  0.45112679    -0.03700
C907        C  0.50428897  0.51613891  0.45592780    -0.10300
C908        C  0.50171419  0.54504430  0.48951321     0.05900
C909        C  0.47859223  0.52656740  0.53232737    -0.04100
C910        C  0.46060028  0.48063639  0.54119912    -0.08500
C911        C  0.46508487  0.45219150  0.50851111     0.05000
C912        C  0.48632736  0.47020486  0.46487873    -0.03500
Br913      Br  0.49146403  0.43476068  0.41525778    -0.03200
H914        H  0.52030650  0.52921693  0.42204636     0.08900
H915        H  0.44442008  0.46753656  0.57501149     0.06900
Br916      Br  0.47175483  0.56115021  0.58179178    -0.03700
C917        C  0.42875880  0.79760197  0.46236144    -0.10300
C918        C  0.42174250  0.81230585  0.41849244     0.05900
C919        C  0.44418734  0.80784467  0.37865335    -0.04100
C920        C  0.46876885  0.78501614  0.38273487    -0.08500
C921        C  0.47165362  0.76606664  0.42583420     0.05000
C922        C  0.45295314  0.77458408  0.46647484    -0.03500
Br923      Br  0.45490173  0.75302084  0.52856488    -0.03200
H924        H  0.41298434  0.80155428  0.49380534     0.08900
H925        H  0.48396154  0.78027258  0.35123713     0.06900
Br926      Br  0.44223693  0.83086367  0.31742074    -0.03700
C927        C  0.35010211  0.56649445  0.37784678    -0.10300
C928        C  0.37335835  0.57914702  0.42096466     0.05900
C929        C  0.34709681  0.56346562  0.46299171    -0.04100
C930        C  0.29935065  0.53898067  0.46083338    -0.08500
C931        C  0.27604096  0.52894202  0.41776368     0.05000
C932        C  0.30239390  0.54172497  0.37566396    -0.03500
Br933      Br  0.27707499  0.52871263  0.31321071    -0.03200
H934        H  0.36913556  0.57720376  0.34511447     0.08900
H935        H  0.28026401  0.52902758  0.49356328     0.06900
Br936      Br  0.37262107  0.57478492  0.52528586    -0.03700
loop_ 
_geom_bond_atom_site_label_1 
_geom_bond_atom_site_label_2 
_geom_bond_distance 
_geom_bond_site_symmetry_2 
_ccdc_geom_bond_type 
O1           C16   1.276       .  A
O1           Al9   1.928       .  S
C2           O12   1.275       .  A
C2            O3   1.270       .  A
C2          C908   1.471       .  S
O3           Al5   1.863       .  S
O4            C6   1.251       .  A
O4           Al5   1.907       .  S
Al5          O13   1.898       .  S
Al5          O15   1.876       .  S
Al5          O14   1.782       .  S
C6           O19   1.258       .  A
C6          C878   1.493       .  S
O7           C17   1.265       .  A
O7           Al9   1.919       .  S
O8           C21   1.259       .  A
O8          Al18   1.896       .  S
Al9          O22   1.894       .  S
Al9          O19   1.934       .  S
Al9          O14   1.781       .  S
O10          C17   1.254       .  A
O10         Al18   1.883       .  S
O11          C20   1.253       .  A
O11         Al18   1.933       .  S
O12         Al18   1.928       .  S
O13          C20   1.251       .  A
O14         Al18   1.783       .  S
O15          C16   1.270       .  A
C16         C898   1.461       .  S
C17         C928   1.497       .  S
C20         C888   1.487       .  S
C21          O22   1.259       .  A
C21         C921   1.490       .  S
O23          C38   1.278       .  A
O23         Al31   1.935       .  S
C24          O34   1.278       .  A
C24          O25   1.266       .  A
C24         C851   1.453       .  S
O25         Al27   1.858       .  S
O26          C28   1.251       .  A
O26         Al27   1.905       .  S
Al27         O35   1.906       .  S
Al27         O37   1.850       .  S
Al27         O36   1.785       .  S
C28          O41   1.259       .  A
C28         C881   1.501       .  S
O29          C39   1.267       .  A
O29         Al31   1.936       .  S
O30          C43   1.266       .  A
O30         Al40   1.929       .  S
Al31         O44   1.895       .  S
Al31         O41   1.941       .  S
Al31         O36   1.782       .  S
O32          C39   1.256       .  A
O32         Al40   1.865       .  S
O33          C42   1.255   1_554  A
O33         Al40   1.925       .  S
O34         Al40   1.939       .  S
O35          C42   1.252   1_554  A
O36         Al40   1.779       .  S
O37          C38   1.265       .  A
C38         C831   1.445       .  S
C39         C871   1.489       .  S
C42         C841   1.489       .  S
C43          O44   1.258       .  A
C43         C861   1.502       .  S
O45          C60   1.275       .  A
O45         Al53   1.933       .  S
C46          O56   1.275       .  A
C46          O47   1.265       .  A
C46         C791   1.462       .  S
O47         Al49   1.862       .  S
O48          C50   1.249       .  A
O48         Al49   1.875       .  S
Al49         O57   1.889       .  S
Al49         O59   1.868       .  S
Al49         O58   1.788       .  S
C50          O63   1.259       .  A
C50         C891   1.494       .  S
O51          C61   1.260       .  A
O51         Al53   1.910       .  S
O52          C65   1.264       .  A
O52         Al62   1.907       .  S
Al53         O66   1.903       .  S
Al53         O63   1.951       .  S
Al53         O58   1.786       .  S
O54          C61   1.260       .  A
O54         Al62   1.909       .  S
O55          C64   1.257       .  A
O55         Al62   1.936       .  S
O56         Al62   1.924       .  S
O57          C64   1.248       .  A
O58         Al62   1.783       .  S
O59          C60   1.267       .  A
C60         C801   1.460       .  S
C61         C808   1.506       .  S
C64         C838   1.493       .  S
C65          O66   1.261       .  A
C65         C821   1.490       .  S
O67          C82   1.257       .  A
O67         Al75   1.897       .  S
C68          O78   1.265       .  A
C68          O69   1.273       .  A
C68         C848   1.452       .  S
O69         Al71   1.924       .  S
O70          C72   1.254       .  A
O70         Al71   1.878       .  S
Al71         O79   1.917   1_556  S
Al71         O81   1.900       .  S
Al71         O80   1.787       .  S
C72          O85   1.265       .  A
C72         C768   1.496       .  S
O73          C83   1.258       .  A
O73         Al75   1.929       .  S
O74          C87   1.264       .  A
O74         Al84   1.864       .  S
Al75         O88   1.923       .  S
Al75         O85   1.920       .  S
Al75         O80   1.792       .  S
O76          C83   1.253       .  A
O76         Al84   1.911       .  S
O77          C86   1.252   1_556  A
O77         Al84   1.904       .  S
O78         Al84   1.863       .  S
O79          C86   1.254       .  A
O80         Al84   1.787       .  S
O81          C82   1.262       .  A
C82         C778   1.487       .  S
C83         C741   1.495       .  S
C86         C751   1.485       .  S
C87          O88   1.272       .  A
C87         C758   1.447       .  S
O89         C104   1.260       .  A
O89         Al97   1.893       .  S
C90         O100   1.266       .  A
C90          O91   1.275       .  A
C90         C911   1.470       .  S
O91         Al93   1.931       .  S
O92          C94   1.252       .  A
O92         Al93   1.877       .  S
Al93        O101   1.909       .  S
Al93        O103   1.924       .  S
Al93        O102   1.792       .  S
C94         O107   1.266       .  A
C94         C718   1.498       .  S
O95         C105   1.258       .  A
O95         Al97   1.937       .  S
O96         C109   1.266       .  A
O96        Al106   1.861       .  S
Al97        O110   1.932       .  S
Al97        O107   1.925       .  S
Al97        O102   1.786       .  S
O98         C105   1.252       .  A
O98        Al106   1.904       .  S
O99         C108   1.249       .  A
O99        Al106   1.889       .  S
O100       Al106   1.855       .  S
O101        C108   1.251       .  A
O102       Al106   1.790       .  S
O103        C104   1.263       .  A
C104        C728   1.501       .  S
C105        C738   1.502       .  S
C108        C708   1.483       .  S
C109        O110   1.274       .  A
C109        C701   1.468       .  S
O111        C126   1.262       .  A
O111       Al119   1.916       .  S
C112        O122   1.264       .  A
C112        O113   1.272       .  A
C112        C671   1.454       .  S
O113       Al115   1.916       .  S
O114        C116   1.259       .  A
O114       Al115   1.894       .  S
Al115       O123   1.916       .  S
Al115       O125   1.903       .  S
Al115       O124   1.785       .  S
C116        O129   1.261       .  A
C116        C688   1.497       .  S
O117        C127   1.258       .  A
O117       Al119   1.930       .  S
O118        C131   1.262       .  A
O118       Al128   1.862       .  S
Al119       O132   1.924       .  S
Al119       O129   1.910       .  S
Al119       O124   1.787       .  S
O120        C127   1.251       .  A
O120       Al128   1.896       .  S
O121        C130   1.248       .  A
O121       Al128   1.885       .  S
O122       Al128   1.863       .  S
O123        C130   1.255       .  A
O124       Al128   1.797       .  S
O125        C126   1.260       .  A
C126        C681   1.505       .  S
C127        C748   1.493       .  S
C130        C711   1.476       .  S
C131        O132   1.273       .  A
C131        C658   1.463       .  S
O133        C148   1.275       .  A
O133       Al141   1.924       .  S
C134        O144   1.272       .  A
C134        O135   1.268       .  A
C134        C618   1.462       .  S
O135       Al137   1.870       .  S
O136        C138   1.250       .  A
O136       Al137   1.898       .  S
Al137       O145   1.901       .  S
Al137       O147   1.874       .  S
Al137       O146   1.788       .  S
C138        O151   1.253       .  A
C138        C641   1.491       .  S
O139        C149   1.262       .  A
O139       Al141   1.904       .  S
O140        C153   1.263       .  A
O140       Al150   1.908       .  S
Al141       O154   1.892       .  S
Al141       O151   1.922       .  S
Al141       O146   1.786       .  S
O142        C149   1.255       .  A
O142       Al150   1.890       .  S
O143        C152   1.257       .  A
O143       Al150   1.929   1_556  S
O144       Al150   1.910       .  S
O145        C152   1.250   1_554  A
O146       Al150   1.788       .  S
O147        C148   1.269       .  A
C148        C661   1.464       .  S
C149        C648   1.491       .  S
C152        C628   1.493       .  S
C153        O154   1.258       .  A
C153        C868   1.486       .  S
O155        C170   1.276       .  A
O155       Al163   1.933   1_545  S
C156        O166   1.275       .  A
C156        O157   1.265       .  A
C156        C598   1.462       .  S
O157       Al159   1.867       .  S
O158        C160   1.249       .  A
O158       Al159   1.894       .  S
Al159       O167   1.906   1_565  S
Al159       O169   1.862   1_565  S
Al159       O168   1.790       .  S
C160        O173   1.260       .  A
C160        C588   1.499       .  S
O161        C171   1.265       .  A
O161       Al163   1.931       .  S
O162        C175   1.262       .  A
O162       Al172   1.914   1_545  S
Al163       O176   1.913   1_565  S
Al163       O173   1.948       .  S
Al163       O168   1.788       .  S
O164        C171   1.257       .  A
O164       Al172   1.879       .  S
O165        C174   1.255       .  A
O165       Al172   1.921   1_545  S
O166       Al172   1.931       .  S
O167        C174   1.250       .  A
O168       Al172   1.784       .  S
O169        C170   1.267       .  A
C170        C698   1.466       .  S
C171        C818   1.490       .  S
C174        C631   1.492       .  S
C175        O176   1.263       .  A
C175        C608   1.505       .  S
O177        C192   1.274       .  A
O177       Al185   1.928       .  S
C178        O188   1.272       .  A
C178        O179   1.267       .  A
C178        C558   1.462       .  S
O179       Al181   1.851       .  S
O180        C182   1.253       .  A
O180       Al181   1.912       .  S
Al181       O189   1.907       .  S
Al181       O191   1.851       .  S
Al181       O190   1.787       .  S
C182        O195   1.256       .  A
C182        C591   1.493       .  S
O183        C193   1.265       .  A
O183       Al185   1.928       .  S
O184        C197   1.259       .  A
O184       Al194   1.903       .  S
Al185       O198   1.879       .  S
Al185       O195   1.926       .  S
Al185       O190   1.787       .  S
O186        C193   1.256       .  A
O186       Al194   1.882       .  S
O187        C196   1.253       .  A
O187       Al194   1.913       .  S
O188       Al194   1.920       .  S
O189        C196   1.252       .  A
O190       Al194   1.785       .  S
O191        C192   1.264       .  A
C192        C571   1.459       .  S
C193        C578   1.492       .  S
C196        C638   1.483       .  S
C197        O198   1.257       .  A
C197        C918   1.489       .  S
O199        C214   1.254       .  A
O199       Al207   1.883       .  S
C200        O210   1.267       .  A
C200        O201   1.276       .  A
C200        C621   1.462       .  S
O201       Al203   1.934       .  S
O202        C204   1.256       .  A
O202       Al203   1.891       .  S
Al203       O211   1.919       .  S
Al203       O213   1.912       .  S
Al203       O212   1.785       .  S
C204        O217   1.267       .  A
C204        C548   1.503       .  S
O205        C215   1.255       .  A
O205       Al207   1.925       .  S
O206        C219   1.264       .  A
O206       Al216   1.844       .  S
Al207       O220   1.936       .  S
Al207       O217   1.925       .  S
Al207       O212   1.791       .  S
O208        C215   1.251       .  A
O208       Al216   1.896       .  S
O209        C218   1.250   1_556  A
O209       Al216   1.900       .  S
O210       Al216   1.852       .  S
O211        C218   1.253   1_556  A
O212       Al216   1.791       .  S
O213        C214   1.264       .  A
C214        C771   1.494       .  S
C215        C541   1.495       .  S
C218        C528   1.490       .  S
C219        O220   1.276       .  A
C219        C788   1.462       .  S
O221        C236   1.257       .  A
O221       Al229   1.886       .  S
C222        O232   1.265       .  A
C222        O223   1.273       .  A
C222        C901   1.461       .  S
O223       Al225   1.930       .  S
O224        C226   1.260       .  A
O224       Al225   1.889       .  S
Al225       O233   1.931   1_565  S
Al225       O235   1.923   1_565  S
Al225       O234   1.786       .  S
C226        O239   1.263       .  A
C226        C521   1.494       .  S
O227        C237   1.255       .  A
O227       Al229   1.919   1_565  S
O228        C241   1.265       .  A
O228       Al238   1.858   1_545  S
Al229       O242   1.919       .  S
Al229       O239   1.914   1_545  S
Al229       O234   1.789   1_545  S
O230        C237   1.252       .  A
O230       Al238   1.902       .  S
O231        C240   1.254       .  A
O231       Al238   1.913   1_545  S
O232       Al238   1.867       .  S
O233        C240   1.259       .  A
O234       Al238   1.792       .  S
O235        C236   1.263       .  A
C236        C691   1.497       .  S
C237        C531   1.489       .  S
C240        C508   1.496       .  S
C241        O242   1.273       .  A
C241        C501   1.452       .  S
O243        C258   1.259       .  A
O243       Al251   1.881       .  S
C244        O254   1.263       .  A
C244        O245   1.273       .  A
C244        C568   1.457       .  S
O245       Al247   1.926       .  S
O246        C248   1.260       .  A
O246       Al247   1.910       .  S
Al247       O255   1.932       .  S
Al247       O257   1.927       .  S
Al247       O256   1.795       .  S
C248        O261   1.259       .  A
C248        C731   1.503       .  S
O249        C259   1.257       .  A
O249       Al251   1.921       .  S
O250        C263   1.264       .  A
O250       Al260   1.861       .  S
Al251       O264   1.926       .  S
Al251       O261   1.905       .  S
Al251       O256   1.785       .  S
O252        C259   1.253       .  A
O252       Al260   1.911       .  S
O253        C262   1.252       .  A
O253       Al260   1.900       .  S
O254       Al260   1.852       .  S
O255        C262   1.258       .  A
O256       Al260   1.793       .  S
O257        C258   1.265       .  A
C258        C488   1.496       .  S
C259        C538   1.487       .  S
C262        C511   1.497       .  S
C263        O264   1.270       .  A
C263        C481   1.470       .  S
O265        C280   1.276       .  A
O265       Al273   1.925       .  S
C266        O276   1.275       .  A
C266        O267   1.265       .  A
C266        C448   1.455       .  S
O267       Al269   1.861       .  S
O268        C270   1.249       .  A
O268       Al269   1.902       .  S
Al269       O277   1.912       .  S
Al269       O279   1.855       .  S
Al269       O278   1.791       .  S
C270        O283   1.251       .  A
C270        C471   1.475       .  S
O271        C281   1.263       .  A
O271       Al273   1.902       .  S
O272        C285   1.265       .  A
O272       Al282   1.922       .  S
Al273       O286   1.876       .  S
Al273       O283   1.910       .  S
Al273       O278   1.780       .  S
O274        C281   1.259       .  A
O274       Al282   1.904       .  S
O275        C284   1.258       .  A
O275       Al282   1.934       .  S
O276       Al282   1.929       .  S
O277        C284   1.253       .  A
O278       Al282   1.784       .  S
O279        C280   1.265       .  A
C280        C668   1.454       .  S
C281        C581   1.491       .  S
C284        C458   1.499       .  S
C285        O286   1.252       .  A
C285        C931   1.497       .  S
O287        C302   1.273       .  A
O287       Al295   1.917       .  S
C288        O298   1.272       .  A
C288        O289   1.263       .  A
C288        C498   1.453       .  S
O289       Al291   1.857       .  S
O290        C292   1.248   1_554  A
O290       Al291   1.888       .  S
Al291       O299   1.895       .  S
Al291       O301   1.855       .  S
Al291       O300   1.796       .  S
C292        O305   1.255       .  A
C292        C431   1.489       .  S
O293        C303   1.265       .  A
O293       Al295   1.919       .  S
O294        C307   1.259       .  A
O294       Al304   1.903       .  S
Al295       O308   1.908       .  S
Al295       O305   1.926   1_554  S
Al295       O300   1.796       .  S
O296        C303   1.254       .  A
O296       Al304   1.878       .  S
O297        C306   1.250       .  A
O297       Al304   1.907       .  S
O298       Al304   1.918       .  S
O299        C306   1.251       .  A
O300       Al304   1.790       .  S
O301        C302   1.265       .  A
C302        C441   1.453       .  S
C303        C651   1.493       .  S
C306        C468   1.494       .  S
C307        O308   1.258       .  A
C307        C858   1.497       .  S
O309        C324   1.274       .  A
O309       Al317   1.931   1_455  S
C310        O320   1.274       .  A
C310        O311   1.268       .  A
C310        C478   1.472       .  S
O311       Al313   1.862       .  S
O312        C314   1.251       .  A
O312       Al313   1.903       .  S
Al313       O321   1.894   1_655  S
Al313       O323   1.861   1_655  S
Al313       O322   1.786       .  S
C314        O327   1.259       .  A
C314        C428   1.496       .  S
O315        C325   1.261       .  A
O315       Al317   1.919       .  S
O316        C329   1.265       .  A
O316       Al326   1.921   1_455  S
Al317       O330   1.903   1_655  S
Al317       O327   1.935       .  S
Al317       O322   1.787       .  S
O318        C325   1.261       .  A
O318       Al326   1.903       .  S
O319        C328   1.260       .  A
O319       Al326   1.947   1_455  S
O320       Al326   1.930       .  S
O321        C328   1.249       .  A
O322       Al326   1.783       .  S
O323        C324   1.265       .  A
C324        C761   1.449       .  S
C325        C811   1.506       .  S
C328        C461   1.497       .  S
C329        O330   1.262       .  A
C329        C611   1.501       .  S
O331        C346   1.254       .  A
O331       Al339   1.874       .  S
C332        O342   1.266       .  A
C332        O333   1.278       .  A
C332        C601   1.460       .  S
O333       Al335   1.939       .  S
O334        C336   1.256       .  A
O334       Al335   1.887       .  S
Al335       O343   1.933       .  S
Al335       O345   1.925       .  S
Al335       O344   1.781       .  S
C336        O349   1.266       .  A
C336        C551   1.504       .  S
O337        C347   1.254   1_556  A
O337       Al339   1.922       .  S
O338        C351   1.266       .  A
O338       Al348   1.852       .  S
Al339       O352   1.938       .  S
Al339       O349   1.929       .  S
Al339       O344   1.781       .  S
O340        C347   1.251   1_556  A
O340       Al348   1.905       .  S
O341        C350   1.252       .  A
O341       Al348   1.908       .  S
O342       Al348   1.857       .  S
O343        C350   1.257       .  A
O344       Al348   1.789       .  S
O345        C346   1.265       .  A
C346        C781   1.488       .  S
C347        C408   1.492       .  S
C350        C418   1.496       .  S
C351        O352   1.277       .  A
C351        C438   1.460       .  S
O353        C368   1.261       .  A
O353       Al361   1.900   1_455  S
C354        O364   1.263       .  A
C354        O355   1.274       .  A
C354        C828   1.442       .  S
O355       Al357   1.923       .  S
O356        C358   1.259       .  A
O356       Al357   1.897       .  S
Al357       O365   1.923   1_655  S
Al357       O367   1.920   1_655  S
Al357       O366   1.793       .  S
C358        O371   1.259       .  A
C358        C518   1.496       .  S
O359        C369   1.257       .  A
O359       Al361   1.927       .  S
O360        C373   1.267       .  A
O360       Al370   1.856   1_455  S
Al361       O374   1.913   1_655  S
Al361       O371   1.903       .  S
Al361       O366   1.782       .  S
O362        C369   1.251       .  A
O362       Al370   1.907       .  S
O363        C372   1.249       .  A
O363       Al370   1.896   1_455  S
O364       Al370   1.848       .  S
O365        C372   1.255       .  A
O366       Al370   1.790       .  S
O367        C368   1.262       .  A
C368        C678   1.503       .  S
C369        C401   1.493       .  S
C372        C411   1.486       .  S
C373        O374   1.271       .  A
C373        C561   1.462       .  S
O375        C390   1.255       .  A
O375       Al383   1.887       .  S
C376        O386   1.263       .  A
C376        O377   1.272       .  A
C376        C451   1.454       .  S
O377       Al379   1.928       .  S
O378        C380   1.260       .  A
O378       Al379   1.910       .  S
Al379       O387   1.929       .  S
Al379       O389   1.922       .  S
Al379       O388   1.799       .  S
C380        O393   1.259       .  A
C380        C491   1.501       .  S
O381        C391   1.256       .  A
O381       Al383   1.924       .  S
O382        C395   1.264       .  A
O382       Al392   1.872       .  S
Al383       O396   1.921       .  S
Al383       O393   1.902       .  S
Al383       O388   1.790       .  S
O384        C391   1.253       .  A
O384       Al392   1.909       .  S
O385        C394   1.252       .  A
O385       Al392   1.897       .  S
O386       Al392   1.854       .  S
O387        C394   1.258       .  A
O388       Al392   1.795       .  S
O389        C390   1.266       .  A
C390        C721   1.500       .  S
C391        C421   1.493       .  S
C394        C398   1.497       .  S
C395        O396   1.272       .  A
C395        C798   1.464       .  S
C397        C398   1.409       .  A
C397        C402   1.405       .  A
C397        H404   1.083       .  S
C398        C399   1.414       .  A
C399        C400   1.410       .  A
C399       Br406   1.920       .  S
C400        C401   1.409       .  A
C400        H405   1.083       .  S
C401        C402   1.409       .  A
C402       Br403   1.918       .  S
C407        C408   1.409       .  A
C407        C412   1.405       .  A
C407        H414   1.083   1_554  S
C408        C409   1.413       .  A
C409        C410   1.406       .  A
C409       Br416   1.919       .  S
C410        C411   1.407       .  A
C410        H415   1.083       .  S
C411        C412   1.409       .  A
C412       Br413   1.918       .  S
C417        C418   1.405       .  A
C417        C422   1.408       .  A
C417        H424   1.084       .  S
C418        C419   1.416   1_455  A
C419        C420   1.406       .  A
C419       Br426   1.919       .  S
C420        C421   1.403       .  A
C420        H425   1.085       .  S
C421        C422   1.414   1_655  A
C422       Br423   1.916       .  S
C427        C428   1.405       .  A
C427        C432   1.406       .  A
C427        H434   1.083       .  S
C428        C429   1.420       .  A
C429        C430   1.406       .  A
C429       Br436   1.921       .  S
C430        C431   1.402       .  A
C430        H435   1.083       .  S
C431        C432   1.413       .  A
C432       Br433   1.917   1_556  S
C437        C438   1.407   1_655  A
C437        C442   1.390       .  A
C437        H444   1.083       .  S
C438        C439   1.405   1_556  A
C439        C440   1.390   1_455  A
C439       Br446   1.920       .  S
C440        C441   1.404       .  A
C440        H445   1.084       .  S
C441        C442   1.401   1_554  A
C442       Br443   1.921       .  S
C447        C448   1.406   1_655  A
C447        C452   1.394       .  A
C447        H454   1.086   1_655  S
C448        C449   1.402       .  A
C449        C450   1.387   1_455  A
C449       Br456   1.919       .  S
C450        C451   1.401       .  A
C450        H455   1.085       .  S
C451        C452   1.404       .  A
C452       Br453   1.920       .  S
C457        C458   1.411       .  A
C457        C462   1.411       .  A
C457        H464   1.083       .  S
C458        C459   1.411       .  A
C459        C460   1.408       .  A
C459       Br466   1.918       .  S
C460        C461   1.409       .  A
C460        H465   1.083       .  S
C461        C462   1.411       .  A
C462       Br463   1.917       .  S
C467        C468   1.409   1_455  A
C467        C472   1.398       .  A
C467        H474   1.083       .  S
C468        C469   1.419       .  A
C469        C470   1.406       .  A
C469       Br476   1.920       .  S
C470        C471   1.402   1_655  A
C470        H475   1.084       .  S
C471        C472   1.405       .  A
C472       Br473   1.919       .  S
C477        C478   1.405       .  A
C477        C482   1.391       .  A
C477        H484   1.084       .  S
C478        C479   1.412       .  A
C479        C480   1.391       .  A
C479       Br486   1.922       .  S
C480        C481   1.404       .  A
C480        H485   1.085       .  S
C481        C482   1.411       .  A
C482       Br483   1.922       .  S
C487        C488   1.406       .  A
C487        C492   1.397       .  A
C487        H494   1.084       .  S
C488        C489   1.413       .  A
C489        C490   1.409       .  A
C489       Br496   1.920       .  S
C490        C491   1.413       .  A
C490        H495   1.084       .  S
C491        C492   1.418       .  A
C492       Br493   1.924       .  S
C497        C498   1.401       .  A
C497        C502   1.389       .  A
C497        H504   1.085       .  S
C498        C499   1.407       .  A
C499        C500   1.390       .  A
C499       Br506   1.921       .  S
C500        C501   1.401       .  A
C500        H505   1.085       .  S
C501        C502   1.406       .  A
C502       Br503   1.921       .  S
C507        C508   1.410       .  A
C507        C512   1.410       .  A
C507        H514   1.083       .  S
C508        C509   1.411       .  A
C509        C510   1.407       .  A
C509       Br516   1.918       .  S
C510        C511   1.409       .  A
C510        H515   1.083       .  S
C511        C512   1.412       .  A
C512       Br513   1.919       .  S
C517        C518   1.411       .  A
C517        C522   1.405       .  A
C517        H524   1.082       .  S
C518        C519   1.415       .  A
C519        C520   1.399       .  A
C519       Br526   1.923       .  S
C520        C521   1.408       .  A
C520        H525   1.082       .  S
C521        C522   1.413       .  A
C522       Br523   1.921       .  S
C527        C528   1.408       .  A
C527        C532   1.406       .  A
C527        H534   1.084   1_554  S
C528        C529   1.411       .  A
C529        C530   1.404       .  A
C529       Br536   1.918       .  S
C530        C531   1.406       .  A
C530        H535   1.084       .  S
C531        C532   1.412       .  A
C532       Br533   1.919       .  S
C537        C538   1.407   1_565  A
C537        C542   1.409       .  A
C537        H544   1.085       .  S
C538        C539   1.408       .  A
C539        C540   1.402       .  A
C539       Br546   1.919       .  S
C540        C541   1.408   1_545  A
C540        H545   1.084       .  S
C541        C542   1.416       .  A
C542       Br543   1.919       .  S
C547        C548   1.404       .  A
C547        C552   1.403       .  A
C547        H554   1.084       .  S
C548        C549   1.422       .  A
C549        C550   1.406       .  A
C549       Br556   1.924   1_556  S
C550        C551   1.406       .  A
C550        H555   1.084       .  S
C551        C552   1.423       .  A
C552       Br553   1.925       .  S
C557        C558   1.402       .  A
C557        C562   1.385       .  A
C557        H564   1.082       .  S
C558        C559   1.411       .  A
C559        C560   1.388       .  A
C559       Br566   1.923       .  S
C560        C561   1.404       .  A
C560        H565   1.083       .  S
C561        C562   1.411       .  A
C562       Br563   1.925       .  S
C567        C568   1.405       .  A
C567        C572   1.390   1_545  A
C567        H574   1.085       .  S
C568        C569   1.403       .  A
C569        C570   1.390   1_545  A
C569       Br576   1.921       .  S
C570        C571   1.407       .  A
C570        H575   1.086       .  S
C571        C572   1.405       .  A
C572       Br573   1.921       .  S
C577        C578   1.408       .  A
C577        C582   1.409       .  A
C577        H584   1.083       .  S
C578        C579   1.418       .  A
C579        C580   1.395       .  A
C579       Br586   1.925       .  S
C580        C581   1.402       .  A
C580        H585   1.083       .  S
C581        C582   1.416       .  A
C582       Br583   1.921       .  S
C587        C588   1.406       .  A
C587        C592   1.411       .  A
C587        H594   1.084       .  S
C588        C589   1.420       .  A
C589        C590   1.405       .  A
C589       Br596   1.920       .  S
C590        C591   1.401       .  A
C590        H595   1.084       .  S
C591        C592   1.413       .  A
C592       Br593   1.913       .  S
C597        C598   1.406       .  A
C597        C602   1.395       .  A
C597        H604   1.083       .  S
C598        C599   1.404       .  A
C599        C600   1.392       .  A
C599       Br606   1.921       .  S
C600        C601   1.405       .  A
C600        H605   1.085       .  S
C601        C602   1.404       .  A
C602       Br603   1.921       .  S
C607        C608   1.411       .  A
C607        C612   1.406       .  A
C607        H614   1.082       .  S
C608        C609   1.419       .  A
C609        C610   1.406       .  A
C609       Br616   1.923       .  S
C610        C611   1.409       .  A
C610        H615   1.083       .  S
C611        C612   1.413       .  A
C612       Br613   1.920       .  S
C617        C618   1.406       .  A
C617        C622   1.393   1_545  A
C617        H624   1.082       .  S
C618        C619   1.408   1_554  A
C619        C620   1.387       .  A
C619       Br626   1.924       .  S
C620        C621   1.404   1_545  A
C620        H625   1.083       .  S
C621        C622   1.406   1_556  A
C622       Br623   1.919       .  S
C627        C628   1.405       .  A
C627        C632   1.409       .  A
C627        H634   1.085       .  S
C628        C629   1.414       .  A
C629        C630   1.403       .  A
C629       Br636   1.913   1_556  S
C630        C631   1.402       .  A
C630        H635   1.085       .  S
C631        C632   1.416       .  A
C632       Br633   1.919       .  S
C637        C638   1.405   1_545  A
C637        C642   1.406       .  A
C637        H644   1.083       .  S
C638        C639   1.409       .  A
C639        C640   1.403       .  A
C639       Br646   1.920       .  S
C640        C641   1.408   1_565  A
C640        H645   1.084       .  S
C641        C642   1.413       .  A
C642       Br643   1.918       .  S
C647        C648   1.403       .  A
C647        C652   1.397       .  A
C647        H654   1.084       .  S
C648        C649   1.418       .  A
C649        C650   1.402       .  A
C649       Br656   1.922   1_554  S
C650        C651   1.405       .  A
C650        H655   1.084       .  S
C651        C652   1.421       .  A
C652       Br653   1.925       .  S
C657        C658   1.403       .  A
C657        C662   1.390       .  A
C657        H664   1.084       .  S
C658        C659   1.411       .  A
C659        C660   1.394       .  A
C659       Br666   1.923       .  S
C660        C661   1.403       .  A
C660        H665   1.085       .  S
C661        C662   1.406       .  A
C662       Br663   1.919       .  S
C667        C668   1.401       .  A
C667        C672   1.391       .  A
C667        H674   1.085       .  S
C668        C669   1.408       .  A
C669        C670   1.389       .  A
C669       Br676   1.922       .  S
C670        C671   1.400       .  A
C670        H675   1.084       .  S
C671        C672   1.406       .  A
C672       Br673   1.921       .  S
C677        C678   1.407       .  A
C677        C682   1.400   1_565  A
C677        H684   1.083       .  S
C678        C679   1.416       .  A
C679        C680   1.410   1_565  A
C679       Br686   1.920       .  S
C680        C681   1.412       .  A
C680        H685   1.083       .  S
C681        C682   1.419       .  A
C682       Br683   1.924       .  S
C687        C688   1.411       .  A
C687        C692   1.405   1_455  A
C687        H694   1.084       .  S
C688        C689   1.416       .  A
C689        C690   1.401   1_455  A
C689       Br696   1.924       .  S
C690        C691   1.409       .  A
C690        H695   1.084       .  S
C691        C692   1.413       .  A
C692       Br693   1.919       .  S
C697        C698   1.406       .  A
C697        C702   1.393       .  A
C697        H704   1.084       .  S
C698        C699   1.406       .  A
C699        C700   1.392       .  A
C699       Br706   1.921       .  S
C700        C701   1.406       .  A
C700        H705   1.084       .  S
C701        C702   1.408       .  A
C702       Br703   1.921       .  S
C707        C708   1.407       .  A
C707        C712   1.399       .  A
C707        H714   1.084       .  S
C708        C709   1.413       .  A
C709        C710   1.403       .  A
C709       Br716   1.920       .  S
C710        C711   1.405       .  A
C710        H715   1.084       .  S
C711        C712   1.406       .  A
C712       Br713   1.919       .  S
C717        C718   1.403       .  A
C717        C722   1.402       .  A
C717        H724   1.084       .  S
C718        C719   1.423       .  A
C719        C720   1.402       .  A
C719       Br726   1.925       .  S
C720        C721   1.405       .  A
C720        H725   1.084       .  S
C721        C722   1.422       .  A
C722       Br723   1.922       .  S
C727        C728   1.407       .  A
C727        C732   1.399       .  A
C727        H734   1.083       .  S
C728        C729   1.415       .  A
C729        C730   1.410       .  A
C729       Br736   1.921       .  S
C730        C731   1.413       .  A
C730        H735   1.083       .  S
C731        C732   1.418       .  A
C732       Br733   1.923       .  S
C737        C738   1.411       .  A
C737        C742   1.408       .  A
C737        H744   1.085       .  S
C738        C739   1.414       .  A
C739        C740   1.409       .  A
C739       Br746   1.917       .  S
C740        C741   1.407       .  A
C740        H745   1.085       .  S
C741        C742   1.411       .  A
C742       Br743   1.919       .  S
C747        C748   1.411       .  A
C747        C752   1.406       .  A
C747        H754   1.085       .  S
C748        C749   1.411       .  A
C749        C750   1.403       .  A
C749       Br756   1.917       .  S
C750        C751   1.404       .  A
C750        H755   1.085       .  S
C751        C752   1.410       .  A
C752       Br753   1.920       .  S
C757        C758   1.396       .  A
C757        C762   1.391       .  A
C757        H764   1.082       .  S
C758        C759   1.407       .  A
C759        C760   1.391       .  A
C759       Br766   1.921       .  S
C760        C761   1.397       .  A
C760        H765   1.083       .  S
C761        C762   1.408       .  A
C762       Br763   1.921       .  S
C767        C768   1.405       .  A
C767        C772   1.403       .  A
C767        H774   1.084       .  S
C768        C769   1.422       .  A
C769        C770   1.398       .  A
C769       Br776   1.924   1_556  S
C770        C771   1.402       .  A
C770        H775   1.085       .  S
C771        C772   1.421       .  A
C772       Br773   1.924       .  S
C777        C778   1.401       .  A
C777        C782   1.394       .  A
C777        H784   1.085       .  S
C778        C779   1.416       .  A
C779        C780   1.406       .  A
C779       Br786   1.920       .  S
C780        C781   1.405       .  A
C780        H785   1.084       .  S
C781        C782   1.420       .  A
C782       Br783   1.926   1_556  S
C787        C788   1.406       .  A
C787        C792   1.387       .  A
C787        H794   1.083       .  S
C788        C789   1.405       .  A
C789        C790   1.394       .  A
C789       Br796   1.921       .  S
C790        C791   1.408       .  A
C790        H795   1.083       .  S
C791        C792   1.404       .  A
C792       Br793   1.922       .  S
C797        C798   1.402       .  A
C797        C802   1.392       .  A
C797        H804   1.082       .  S
C798        C799   1.408       .  A
C799        C800   1.395       .  A
C799       Br806   1.920       .  S
C800        C801   1.402       .  A
C800        H805   1.084       .  S
C801        C802   1.407       .  A
C802       Br803   1.922       .  S
C807        C808   1.412       .  A
C807        C812   1.409   1_565  A
C807        H814   1.084       .  S
C808        C809   1.417       .  A
C809        C810   1.403   1_565  A
C809       Br816   1.922       .  S
C810        C811   1.409       .  A
C810        H815   1.083       .  S
C811        C812   1.418       .  A
C812       Br813   1.922       .  S
C817        C818   1.406       .  A
C817        C822   1.396   1_455  A
C817        H824   1.084       .  S
C818        C819   1.410       .  A
C819        C820   1.409   1_455  A
C819       Br826   1.918       .  S
C820        C821   1.412       .  A
C820        H825   1.083       .  S
C821        C822   1.413       .  A
C822       Br823   1.924       .  S
C827        C828   1.393       .  A
C827        C832   1.388       .  A
C827        H834   1.084       .  S
C828        C829   1.409       .  A
C829        C830   1.388       .  A
C829       Br836   1.919       .  S
C830        C831   1.394       .  A
C830        H835   1.085       .  S
C831        C832   1.410       .  A
C832       Br833   1.918       .  S
C837        C838   1.410       .  A
C837        C842   1.407       .  A
C837        H844   1.085       .  S
C838        C839   1.410       .  A
C839        C840   1.405       .  A
C839       Br846   1.917       .  S
C840        C841   1.407       .  A
C840        H845   1.085   1_556  S
C841        C842   1.410       .  A
C842       Br843   1.919       .  S
C847        C848   1.398   1_554  A
C847        C852   1.393       .  A
C847        H854   1.083       .  S
C848        C849   1.408       .  A
C849        C850   1.390       .  A
C849       Br856   1.920       .  S
C850        C851   1.396   1_556  A
C850        H855   1.083       .  S
C851        C852   1.411       .  A
C852       Br853   1.922       .  S
C857        C858   1.403       .  A
C857        C862   1.401       .  A
C857        H864   1.085       .  S
C858        C859   1.416       .  A
C859        C860   1.409       .  A
C859       Br866   1.921   1_554  S
C860        C861   1.409       .  A
C860        H865   1.084       .  S
C861        C862   1.422       .  A
C862       Br863   1.924       .  S
C867        C868   1.412       .  A
C867        C872   1.408       .  A
C867        H874   1.084       .  S
C868        C869   1.411       .  A
C869        C870   1.393       .  A
C869       Br876   1.924   1_554  S
C870        C871   1.408       .  A
C870        H875   1.084       .  S
C871        C872   1.410       .  A
C872       Br873   1.917       .  S
C877        C878   1.408       .  A
C877        C882   1.410       .  A
C877        H884   1.085       .  S
C878        C879   1.409       .  A
C879        C880   1.408       .  A
C879       Br886   1.919       .  S
C880        C881   1.411       .  A
C880        H885   1.085       .  S
C881        C882   1.414       .  A
C882       Br883   1.917       .  S
C887        C888   1.410       .  A
C887        C892   1.417       .  A
C887        H894   1.083       .  S
C888        C889   1.407       .  A
C889        C890   1.389       .  A
C889       Br896   1.920       .  S
C890        C891   1.405       .  A
C890        H895   1.084       .  S
C891        C892   1.415       .  A
C892       Br893   1.917       .  S
C897        C898   1.398       .  A
C897        C902   1.391       .  A
C897        H904   1.084       .  S
C898        C899   1.410       .  A
C899        C900   1.394       .  A
C899       Br906   1.918       .  S
C900        C901   1.400       .  A
C900        H905   1.083       .  S
C901        C902   1.411       .  A
C902       Br903   1.920       .  S
C907        C908   1.407       .  A
C907        C912   1.391       .  A
C907        H914   1.084       .  S
C908        C909   1.411       .  A
C909        C910   1.390       .  A
C909       Br916   1.923       .  S
C910        C911   1.406       .  A
C910        H915   1.084       .  S
C911        C912   1.409       .  A
C912       Br913   1.923       .  S
C917        C918   1.407       .  A
C917        C922   1.396       .  A
C917        H924   1.083       .  S
C918        C919   1.413       .  A
C919        C920   1.401       .  A
C919       Br926   1.922       .  S
C920        C921   1.410       .  A
C920        H925   1.084       .  S
C921        C922   1.415       .  A
C922       Br923   1.924       .  S
C927        C928   1.403       .  A
C927        C932   1.401       .  A
C927        H934   1.084       .  S
C928        C929   1.422       .  A
C929        C930   1.402       .  A
C929       Br936   1.923       .  S
C930        C931   1.403       .  A
C930        H935   1.084       .  S
C931        C932   1.423       .  A
C932       Br933   1.924       .  S
