geometry optimzed in LAMMPS
_audit_creation_date              2020-12-01 
_audit_creation_method            'lammps2cif' 
_symmetry_space_group_name_H-M    'P1' 
_symmetry_Int_Tables_number       1 
_symmetry_cell_setting            triclinic 
loop_ 
_symmetry_equiv_pos_as_xyz 
  x,y,z 
_cell_length_a                    46.28679736 
_cell_length_b                    46.25169158164625 
_cell_length_c                    35.81518573123063 
_cell_angle_alpha                 89.9999073743662 
_cell_angle_beta                  90.00046586674371 
_cell_angle_gamma                 90.00976436750514 
loop_ 
_atom_site_label 
_atom_site_type_symbol 
_atom_site_fract_x 
_atom_site_fract_y 
_atom_site_fract_z 
_atom_site_charge 
Fe1        Fe  0.37664659  0.38963040  0.18640443     1.65800
Fe2        Fe  0.34477626  0.45323558  0.20899862     1.73200
Fe3        Fe  0.40844062  0.45321290  0.16335743     1.54400
O4          O  0.43735458  0.43383159  0.19767278    -0.79300
O5          O  0.34827844  0.48736531  0.17027947    -0.77700
O6          O  0.42046600  0.38846512  0.20251477    -0.81900
O7          O  0.38647544  0.38629635  0.13124320    -0.76700
O8          O  0.40495723  0.48738533  0.20203089    -0.78500
O9          O  0.31593578  0.43375654  0.17467648    -0.81200
C10         C  0.40470959  0.39911631  0.11113920     0.99500
C11         C  0.43975658  0.40784658  0.20812617     1.07000
O12         O  0.37662505  0.43175223  0.18624894    -1.10200
O13         O  0.33653544  0.42289449  0.25160101    -0.72600
O14         O  0.36682452  0.38650602  0.24159424    -0.76100
O15         O  0.41657310  0.42279348  0.12081180    -0.76800
C16         C  0.34843649  0.39929644  0.26148618     0.98400
O17         O  0.33281557  0.38835874  0.17030982    -0.74800
O18         O  0.37214051  0.47414837  0.24421972    -0.80000
C19         C  0.36184911  0.49123760  0.13967278     1.01100
C20         C  0.39136834  0.49129309  0.23262277     1.07000
O21         O  0.38105767  0.47407125  0.12810083    -0.75600
C22         C  0.31352964  0.40770622  0.16448975     1.05300
Fe23       Fe  0.37622631  0.36847349  0.43641295     1.65800
Fe24       Fe  0.40800632  0.30482457  0.45904709     1.73200
Fe25       Fe  0.34434019  0.30493559  0.41340869     1.54400
O26         O  0.31546028  0.32435953  0.44771877    -0.79300
O27         O  0.40444879  0.27069424  0.42033651    -0.77700
O28         O  0.33240521  0.36970750  0.45252050    -0.81900
O29         O  0.36640773  0.37180037  0.38124537    -0.76700
O30         O  0.34777117  0.27076357  0.45209004    -0.78500
O31         O  0.43687902  0.32426049  0.42471664    -0.81200
C32         C  0.34814709  0.35900376  0.36115644     0.99500
C33         C  0.31309037  0.35035218  0.45814835     1.07000
O34         O  0.37618721  0.32635179  0.43629116    -1.10200
O35         O  0.41628456  0.33516818  0.00163858    -0.72600
O36         O  0.38605456  0.37160281  0.49159806    -0.76100
O37         O  0.33624285  0.33535428  0.37085409    -0.76800
C38         C  0.40442016  0.35879122  0.01150200     0.98400
O39         O  0.42005733  0.36967794  0.42032124    -0.74800
O40         O  0.38061446  0.28394098  0.49427645    -0.80000
C41         C  0.39086481  0.26684469  0.38973436     1.01100
C42         C  0.36134901  0.26683306  0.48268520     1.07000
O43         O  0.37169327  0.28404812  0.37815804    -0.75600
C44         C  0.43931845  0.35030466  0.41451239     1.05300
Fe45       Fe  0.11575602  0.37907293  0.31190392     1.65800
Fe46       Fe  0.05217678  0.41093864  0.33458368     1.73200
Fe47       Fe  0.05222605  0.34729303  0.28879418     1.54400
O48         O  0.08268349  0.33910551  0.24632191    -0.79300
O49         O  0.03118228  0.38351816  0.36967995    -0.77700
O50         O  0.11911280  0.36926793  0.25673009    -0.81900
O51         O  0.11688963  0.33521958  0.32796773    -0.76700
O52         O  0.03146904  0.37474885  0.25352291    -0.78500
O53         O  0.08245683  0.41905766  0.37729714    -0.81200
C54         C  0.09750628  0.31593352  0.33358774     0.99500
C55         C  0.10634968  0.35096784  0.23665725     1.07000
O56         O  0.07366104  0.37910212  0.31176490    -1.10200
O57         O  0.07170254  0.43985821  0.30040446    -0.72600
O58         O  0.11704015  0.42292442  0.29585409    -0.76100
O59         O  0.07153679  0.31835345  0.32314979    -0.76800
C60         C  0.09771438  0.44224313  0.29013393     0.98400
O61         O  0.11889818  0.38887574  0.36709378    -0.74800
O62         O  0.01813007  0.40751251  0.29573691    -0.80000
C63         C  0.01403241  0.36433385  0.35796567     1.01100
C64         C  0.01429531  0.39395618  0.26509684     1.07000
O65         O  0.01799359  0.35077738  0.32735505    -0.75600
C66         C  0.10607636  0.40717461  0.38709845     1.05300
Fe67       Fe  0.13707811  0.37904477  0.06190425     1.65800
Fe68       Fe  0.20064196  0.34714756  0.08452050     1.73200
Fe69       Fe  0.20059657  0.41084756  0.03885320     1.54400
O70         O  0.17011970  0.41905984  0.49640240    -0.79300
O71         O  0.22164015  0.37452713  0.11966507    -0.77700
O72         O  0.13375402  0.38879547  0.50671451    -0.81900
O73         O  0.13592225  0.42291695  0.07789291    -0.76700
O74         O  0.22135440  0.38342852  0.50353486    -0.78500
O75         O  0.17034246  0.33900374  0.12721293    -0.81200
C76         C  0.15529580  0.44219836  0.08358964     0.99500
C77         C  0.14648828  0.40714714  0.48668750     1.07000
O78         O  0.17916801  0.37901283  0.06176341    -1.10200
O79         O  0.18111589  0.31825816  0.05028893    -0.72600
O80         O  0.13576562  0.33517423  0.04592927    -0.76100
O81         O  0.18128938  0.43976122  0.07325922    -0.76800
C82         C  0.15507937  0.31585888  0.04012869     0.98400
O83         O  0.13397132  0.36929615  0.11711182    -0.74800
O84         O  0.23469402  0.35061690  0.04568566    -0.80000
C85         C  0.23879867  0.39371460  0.10798062     1.01100
C86         C  0.23853475  0.36421707  0.01507838     1.07000
O87         O  0.23483349  0.40731602  0.07740313    -0.75600
C88         C  0.14676113  0.35094120  0.13706787     1.05300
Fe89       Fe  0.12645492  0.11847969  0.18663089     1.65800
Fe90       Fe  0.09459147  0.05485417  0.16402647     1.73200
Fe91       Fe  0.15825675  0.05491727  0.20966757     1.54400
O92         O  0.18716997  0.07431013  0.17536756    -0.79300
O93         O  0.09811235  0.02072049  0.20273400    -0.77700
O94         O  0.17027645  0.11966839  0.17052062    -0.81900
O95         O  0.13628046  0.12181437  0.24179587    -0.76700
O96         O  0.15479228  0.02074963  0.17098148    -0.78500
O97         O  0.06575048  0.07432252  0.19836307    -0.81200
C98         C  0.15450944  0.10899703  0.26190383     0.99500
C99         C  0.18957084  0.10029525  0.16491709     1.07000
O100        O  0.12644020  0.07635772  0.18677069    -1.10200
O101        O  0.08634081  0.08520115  0.12143335    -0.72600
O102        O  0.11662725  0.12160366  0.13144506    -0.76100
O103        O  0.16637954  0.08533014  0.25222348    -0.76800
C104        C  0.09823449  0.10881003  0.11155648     0.98400
O105        O  0.08262623  0.11972798  0.20272752    -0.74800
O106        O  0.12195401  0.03393856  0.12879663    -0.80000
C107        C  0.11169239  0.01686376  0.23333566     1.01100
C108        C  0.14121201  0.01682613  0.14038471     1.07000
O109        O  0.13087314  0.03406056  0.24491490    -0.75600
C110        C  0.06334376  0.10037231  0.20855435     1.05300
Fe111      Fe  0.12598863  0.13963586  0.43664052     1.65800
Fe112      Fe  0.15794293  0.20321697  0.41407793     1.73200
Fe113      Fe  0.09427621  0.20324173  0.45971475     1.54400
O114        O  0.06533143  0.18389122  0.42540604    -0.79300
O115        O  0.15447470  0.23735018  0.45279368    -0.77700
O116        O  0.08216774  0.13851368  0.42053205    -0.81900
O117        O  0.11615618  0.13629675  0.49180018    -0.76700
O118        O  0.09779562  0.23741039  0.42103762    -0.78500
O119        O  0.18675096  0.18370584  0.44840876    -0.81200
C120        C  0.09794966  0.14913497  0.01191926     0.99500
C121        C  0.06289772  0.15791201  0.41493930     1.07000
O122        O  0.12606343  0.18175764  0.43681316    -1.10200
O123        O  0.16615746  0.17287103  0.37147555    -0.72600
O124        O  0.13580694  0.13651809  0.38144900    -0.76100
O125        O  0.08611712  0.17282711  0.00226028    -0.76800
C126        C  0.15422437  0.14928915  0.36157465     0.98400
O127        O  0.16981846  0.13831941  0.45273546    -0.74800
O128        O  0.13060983  0.22416155  0.37885396    -0.80000
C129        C  0.14090531  0.24122996  0.48339787     1.01100
C130        C  0.11138973  0.24131165  0.39044637     1.07000
O131        O  0.12168695  0.22406995  0.49497104    -0.76400
C132        C  0.18912562  0.15764852  0.45857673     1.05300
Fe133      Fe  0.38690186  0.12905369  0.31112489     1.65800
Fe134      Fe  0.45046173  0.16100017  0.28849049     1.73200
Fe135      Fe  0.45045079  0.09735315  0.33427740     1.54400
O136        O  0.41998888  0.08913532  0.37673767    -0.79300
O137        O  0.47149332  0.13360904  0.25339994    -0.77700
O138        O  0.38353083  0.11924393  0.36629643    -0.81900
O139        O  0.38581340  0.08519946  0.29506110    -0.76700
O140        O  0.47117149  0.12483580  0.36955618    -0.78500
O141        O  0.42018595  0.16909068  0.24576552    -0.81200
C142        C  0.40521480  0.06593498  0.28946102     0.99500
C143        C  0.39630689  0.10096714  0.38638434     1.07000
O144        O  0.42899678  0.12913478  0.31129142    -1.10200
O145        O  0.43089876  0.18988976  0.32266886    -0.72600
O146        O  0.38557200  0.17290382  0.32717531    -0.76100
O147        O  0.43117707  0.06838583  0.29991873    -0.76800
C148        C  0.40487947  0.19224365  0.33291771     0.98400
O149        O  0.38377457  0.13885295  0.25593284    -0.74800
O150        O  0.48450342  0.15760849  0.32734684    -0.80000
C151        C  0.48864752  0.11443425  0.26511638     1.01100
C152        C  0.48834046  0.14405373  0.35798605     1.07000
O153        O  0.48468799  0.10087399  0.29572627    -0.75600
C154        C  0.39658270  0.15717683  0.23594480     1.05300
Fe155      Fe  0.36558122  0.12904868  0.06112178     1.65800
Fe156      Fe  0.30203341  0.09707671  0.03854967     1.73200
Fe157      Fe  0.30204679  0.16077759  0.08421507     1.54400
O158        O  0.33252746  0.16901770  0.12665555    -0.79300
O159        O  0.28099952  0.12442887  0.00341055    -0.77700
O160        O  0.36891991  0.13880470  0.11631066    -0.81900
O161        O  0.36669630  0.17292167  0.04513268    -0.76700
O162        O  0.28132269  0.13333456  0.11954071    -0.78500
O163        O  0.33232797  0.08895750  0.49584606    -0.81200
C164        C  0.34730633  0.19218351  0.03945699     0.99500
C165        C  0.35617319  0.15713324  0.13635322     1.07000
O166        O  0.32349128  0.12896876  0.06128899    -1.10200
O167        O  0.32159421  0.06821543  0.07278084    -0.72600
O168        O  0.36693503  0.08517964  0.07709755    -0.76100
O169        O  0.32131998  0.18971773  0.04980769    -0.76800
C170        C  0.34763785  0.06584500  0.08292019     0.98400
O171        O  0.36867261  0.11930296  0.00591252    -0.74800
O172        O  0.26798627  0.10051488  0.07739352    -0.80000
C173        C  0.26383992  0.14361009  0.01509670     1.01100
C174        C  0.26414487  0.11411406  0.10799970     1.07000
O175        O  0.26780548  0.15721429  0.04567370    -0.75600
C176        C  0.35589452  0.10092331  0.48597222     1.05300
C177        C  0.38280333  0.09431092  0.42166265    -0.10900
C178        C  0.36928657  0.09428941  0.45061989    -0.12500
C179        C  0.38318528  0.16380541  0.20059340    -0.10900
C180        C  0.36967024  0.16379057  0.17163496    -0.12500
C181        C  0.21523472  0.15053366  0.47787774    -0.10900
C182        C  0.23776148  0.14813366  0.49441799    -0.12500
C183        C  0.01431356  0.14863458  0.37885766    -0.10900
C184        C  0.03678654  0.15097485  0.39553264    -0.12500
C185        C  0.23815795  0.10958214  0.12885982    -0.10900
C186        C  0.21567675  0.10726264  0.14551994    -0.12500
C187        C  0.01471313  0.10986710  0.24442757    -0.10900
C188        C  0.03723086  0.10745287  0.22787002    -0.12500
C189        C  0.09149194  0.12221597  0.07625038    -0.10900
C190        C  0.09139479  0.13569843  0.04726527    -0.12500
C191        C  0.16104981  0.12242549  0.29726029    -0.10900
C192        C  0.16095262  0.13589143  0.32625823    -0.12500
C193        C  0.14829216  0.46833050  0.10293494    -0.10900
C194        C  0.14585606  0.49082692  0.11956324    -0.12500
C195        C  0.14551208  0.26722776  0.00423566    -0.10900
C196        C  0.14796471  0.28972936  0.02084698    -0.12500
C197        C  0.10715480  0.49085517  0.25416540    -0.10900
C198        C  0.10477564  0.46835936  0.27080188    -0.12500
C199        C  0.13299231  0.41380000  0.45140530    -0.10900
C200        C  0.11947611  0.41380891  0.42244792    -0.12500
C201        C  0.11985131  0.34431851  0.20137697    -0.10900
C202        C  0.13336736  0.34430333  0.17241943    -0.12500
C203        C  0.10445915  0.28981559  0.35298367    -0.10900
C204        C  0.10681913  0.26732412  0.36963550    -0.12500
C205        C  0.26451950  0.35968588  0.49421546    -0.10900
C206        C  0.28699631  0.35734981  0.47754983    -0.12500
C207        C  0.46544374  0.35735756  0.39520329    -0.10900
C208        C  0.48796581  0.35975961  0.37865141    -0.12500
C209        C  0.39778782  0.21834906  0.35225186    -0.10900
C210        C  0.39539503  0.24084001  0.36889491    -0.12500
C211        C  0.35670270  0.24082853  0.00349532    -0.10900
C212        C  0.35428189  0.21832625  0.02011499    -0.12500
C213        C  0.26487871  0.39823992  0.12865541    -0.10900
C214        C  0.28740943  0.40062203  0.14519167    -0.12500
C215        C  0.48832348  0.39853092  0.24422206    -0.10900
C216        C  0.46585532  0.40088276  0.22754021    -0.12500
C217        C  0.41116396  0.37219290  0.04681175    -0.10900
C218        C  0.41126251  0.38567532  0.07579676    -0.12500
C219        C  0.34170658  0.38590256  0.29680580    -0.10900
C220        C  0.34160784  0.37243651  0.32580380    -0.12500
C221        C  0.39829159  0.03980649  0.27006751    -0.10900
C222        C  0.39594538  0.01731010  0.25342265    -0.12500
C223        C  0.35478068  0.03972626  0.10220500    -0.10900
C224        C  0.35724772  0.01723014  0.11882409    -0.12500
Fe225      Fe  0.37664622  0.38963008  0.68640514     1.65800
Fe226      Fe  0.34477590  0.45323541  0.70899924     1.73200
Fe227      Fe  0.40844053  0.45321251  0.66335833     1.54400
O228        O  0.43735430  0.43383101  0.69767366    -0.79300
O229        O  0.34827816  0.48736502  0.67028007    -0.77700
O230        O  0.42046560  0.38846460  0.70251555    -0.81900
O231        O  0.38647509  0.38629605  0.63124391    -0.76700
O232        O  0.40495729  0.48738486  0.70203191    -0.78500
O233        O  0.31593541  0.43375629  0.67467706    -0.81200
C234        C  0.40470923  0.39911598  0.61114001     0.99500
C235        C  0.43975614  0.40784594  0.70812697     1.07000
O236        O  0.37662478  0.43175200  0.68624969    -1.10200
O237        O  0.33653505  0.42289428  0.75160157    -0.72600
O238        O  0.36682407  0.38650571  0.74159488    -0.76100
O239        O  0.41657286  0.42279308  0.62081271    -0.76800
C240        C  0.34843599  0.39929622  0.76148662     0.98400
O241        O  0.33281517  0.38835844  0.67031046    -0.74800
O242        O  0.37214007  0.47414823  0.74422035    -0.80000
C243        C  0.36184899  0.49123736  0.63967351     1.01100
C244        C  0.39136818  0.49129279  0.73262361     1.07000
O245        O  0.38105777  0.47407106  0.62810176    -0.75600
C246        C  0.31352919  0.40770592  0.66449041     1.05300
Fe247      Fe  0.37622638  0.36847344  0.93641266     1.65800
Fe248      Fe  0.40800671  0.30482471  0.95904674     1.73200
Fe249      Fe  0.34434040  0.30493538  0.91340897     1.54400
O250        O  0.31546059  0.32435924  0.94771925    -0.79300
O251        O  0.40444916  0.27069435  0.92033622    -0.77700
O252        O  0.33240516  0.36970741  0.95251952    -0.81900
O253        O  0.36640822  0.37179984  0.88124495    -0.76700
O254        O  0.34777169  0.27076347  0.95209029    -0.78500
O255        O  0.43687919  0.32426069  0.92471607    -0.81200
C256        C  0.34814718  0.35900342  0.86115661     0.99500
C257        C  0.31309049  0.35035211  0.95814796     1.07000
O258        O  0.37618748  0.32635176  0.93629095    -1.10200
O259        O  0.41628415  0.33516781  0.50163914    -0.72600
O260        O  0.38605418  0.37160268  0.99159787    -0.76100
O261        O  0.33624265  0.33535412  0.87085460    -0.76800
C262        C  0.40442015  0.35879104  0.51150236     0.98400
O263        O  0.42005752  0.36967818  0.92032167    -0.74800
O264        O  0.38061509  0.28394117  0.99427635    -0.80000
C265        C  0.39086514  0.26684475  0.88973407     1.01100
C266        C  0.36134965  0.26683326  0.98268544     1.07000
O267        O  0.37169330  0.28404797  0.87815806    -0.75600
C268        C  0.43931865  0.35030499  0.91451248     1.05300
Fe269      Fe  0.11575605  0.37907350  0.81190441     1.65800
Fe270      Fe  0.05217680  0.41093930  0.83458371     1.73200
Fe271      Fe  0.05222617  0.34729318  0.78879536     1.54400
O272        O  0.08268371  0.33910532  0.74632330    -0.79300
O273        O  0.03118263  0.38351911  0.86968065    -0.77700
O274        O  0.11911259  0.36926847  0.75673060    -0.81900
O275        O  0.11688988  0.33522024  0.82796826    -0.76700
O276        O  0.03146902  0.37474854  0.75352367    -0.78500
O277        O  0.08245711  0.41905904  0.87729663    -0.81200
C278        C  0.09750666  0.31593418  0.83358878     0.99500
C279        C  0.10634981  0.35096792  0.73665827     1.07000
O280        O  0.07366109  0.37910256  0.81176546    -1.10200
O281        O  0.07170228  0.43985842  0.80040367    -0.72600
O282        O  0.11704010  0.42292494  0.79585461    -0.76100
O283        O  0.07153699  0.31835410  0.82315154    -0.76800
C284        C  0.09771425  0.44224347  0.79013375     0.98400
O285        O  0.11889803  0.38887637  0.86709417    -0.74800
O286        O  0.01812994  0.40751254  0.79573720    -0.80000
C287        C  0.01403282  0.36433465  0.85796672     1.01100
C288        C  0.01429516  0.39395583  0.76509735     1.07000
O289        O  0.01799387  0.35077790  0.82735627    -0.75600
C290        C  0.10607653  0.40717588  0.88709827     1.05300
Fe291      Fe  0.13707788  0.37904389  0.56190553     1.65800
Fe292      Fe  0.20064177  0.34714654  0.58452137     1.73200
Fe293      Fe  0.20059630  0.41084642  0.53885369     1.54400
O294        O  0.17011997  0.41906136  0.99640209    -0.79300
O295        O  0.22163998  0.37452610  0.61966584    -0.77700
O296        O  0.13375456  0.38879652  0.00671327    -0.81900
O297        O  0.13592215  0.42291614  0.57789404    -0.76700
O298        O  0.22135476  0.38342991  0.00353410    -0.78500
O299        O  0.17034224  0.33900266  0.62721381    -0.81200
C300        C  0.15529572  0.44219757  0.58359020     0.99500
C301        C  0.14648871  0.40714861  0.98668672     1.07000
O302        O  0.17916780  0.37901184  0.56176424    -1.10200
O303        O  0.18111561  0.31825723  0.55028972    -0.72600
O304        O  0.13576526  0.33517331  0.54593071    -0.76100
O305        O  0.18128921  0.43976036  0.57325945    -0.76800
C306        C  0.15507899  0.31585809  0.54012962     0.98400
O307        O  0.13397143  0.36929555  0.61711317    -0.74800
O308        O  0.23469395  0.35061585  0.54568664    -0.80000
C309        C  0.23879836  0.39371370  0.60798144     1.01100
C310        C  0.23853463  0.36421594  0.51507930     1.07000
O311        O  0.23483313  0.40731501  0.57740376    -0.75600
C312        C  0.14676111  0.35094042  0.63706905     1.05300
Fe313      Fe  0.12645510  0.11847938  0.68663084     1.65800
Fe314      Fe  0.09459194  0.05485380  0.66402603     1.73200
Fe315      Fe  0.15825697  0.05491707  0.70966760     1.54400
O316        O  0.18717011  0.07430978  0.67536751    -0.79300
O317        O  0.09811279  0.02072024  0.70273365    -0.77700
O318        O  0.17027665  0.11966812  0.67052082    -0.81900
O319        O  0.13628042  0.12181399  0.74179579    -0.76700
O320        O  0.15479258  0.02074920  0.67098177    -0.78500
O321        O  0.06575074  0.07432203  0.69836243    -0.81200
C322        C  0.15450967  0.10899682  0.76190366     0.99500
C323        C  0.18957109  0.10029504  0.66491723     1.07000
O324        O  0.12644045  0.07635744  0.68677061    -1.10200
O325        O  0.08634132  0.08520077  0.62143298    -0.72600
O326        O  0.11662752  0.12160341  0.63144501    -0.76100
O327        O  0.16637988  0.08533011  0.75222325    -0.76800
C328        C  0.09823486  0.10880971  0.61155637     0.98400
O329        O  0.08262639  0.11972752  0.70272718    -0.74800
O330        O  0.12195475  0.03393828  0.62879641    -0.80000
C331        C  0.11169248  0.01686382  0.73333555     1.01100
C332        C  0.14121247  0.01682569  0.64038486     1.07000
O333        O  0.13087315  0.03406067  0.74491497    -0.75600
C334        C  0.06334392  0.10037180  0.70855380     1.05300
Fe335      Fe  0.12598922  0.13963595  0.93664038     1.65800
Fe336      Fe  0.15794340  0.20321718  0.91407764     1.73200
Fe337      Fe  0.09427682  0.20324194  0.95971476     1.54400
O338        O  0.06533193  0.18389142  0.92540596    -0.79300
O339        O  0.15447527  0.23735039  0.95279342    -0.77700
O340        O  0.08216840  0.13851394  0.92053127    -0.81900
O341        O  0.11615627  0.13629665  0.99179993    -0.76700
O342        O  0.09779619  0.23741061  0.92103779    -0.78500
O343        O  0.18675152  0.18370601  0.94840821    -0.81200
C344        C  0.09794940  0.14913502  0.51191938     0.99500
C345        C  0.06289837  0.15791234  0.91493870     1.07000
O346        O  0.12606399  0.18175778  0.93681301    -1.10200
O347        O  0.16615779  0.17287143  0.87147512    -0.72600
O348        O  0.13580794  0.13651806  0.88144900    -0.76100
O349        O  0.08611649  0.17282684  0.50226025    -0.76800
C350        C  0.15422503  0.14928937  0.86157441     0.98400
O351        O  0.16981892  0.13831963  0.95273589    -0.74800
O352        O  0.13061013  0.22416177  0.87885380    -0.80000
C353        C  0.14090585  0.24123034  0.98339749     1.01100
C354        C  0.11139017  0.24131195  0.89044646     1.07000
O355        O  0.12168760  0.22407022  0.99497091    -0.76400
C356        C  0.18912612  0.15764881  0.95857669     1.05300
Fe357      Fe  0.38690241  0.12905385  0.81112452     1.65800
Fe358      Fe  0.45046219  0.16100014  0.78848958     1.73200
Fe359      Fe  0.45045136  0.09735343  0.83427732     1.54400
O360        O  0.41998962  0.08913615  0.87673808    -0.79300
O361        O  0.47149361  0.13360875  0.75339928    -0.77700
O362        O  0.38353138  0.11924439  0.86629615    -0.81900
O363        O  0.38581383  0.08519949  0.79506118    -0.76700
O364        O  0.47117240  0.12483634  0.86955557    -0.78500
O365        O  0.42018631  0.16909048  0.74576460    -0.81200
C366        C  0.40521514  0.06593482  0.78946153     0.99500
C367        C  0.39630768  0.10096804  0.88638449     1.07000
O368        O  0.42899732  0.12913488  0.81129091    -1.10200
O369        O  0.43089939  0.18988997  0.82266774    -0.72600
O370        O  0.38557266  0.17290405  0.82717459    -0.76100
O371        O  0.43117740  0.06838571  0.79991929    -0.76800
C372        C  0.40488006  0.19224388  0.83291681     0.98400
O373        O  0.38377501  0.13885277  0.75593229    -0.74800
O374        O  0.48450414  0.15760871  0.82734572    -0.80000
C375        C  0.48864777  0.11443391  0.76511578     1.01100
C376        C  0.48834132  0.14405410  0.85798503     1.07000
O377        O  0.48468832  0.10087382  0.79572580    -0.75600
C378        C  0.39658297  0.15717650  0.73594399     1.05300
Fe379      Fe  0.36558100  0.12904797  0.56112089     1.65800
Fe380      Fe  0.30203302  0.09707591  0.53854967     1.73200
Fe381      Fe  0.30204674  0.16077709  0.58421440     1.54400
O382        O  0.33252761  0.16901731  0.62665473    -0.79300
O383        O  0.28099892  0.12442779  0.50341046    -0.77700
O384        O  0.36892000  0.13880424  0.61630972    -0.81900
O385        O  0.36669605  0.17292099  0.54513139    -0.76700
O386        O  0.28132281  0.13333427  0.61954037    -0.78500
O387        O  0.33232858  0.08895869  0.99584611    -0.81200
C388        C  0.34730611  0.19218291  0.53945580     0.99500
C389        C  0.35617346  0.15713279  0.63635237     1.07000
O390        O  0.32349105  0.12896810  0.56128840    -1.10200
O391        O  0.32159394  0.06821489  0.57278102    -0.72600
O392        O  0.36693483  0.08517901  0.57709711    -0.76100
O393        O  0.32131974  0.18971713  0.54980668    -0.76800
C394        C  0.34763769  0.06584441  0.58292024     0.98400
O395        O  0.36867200  0.11930199  0.50591163    -0.74800
O396        O  0.26798615  0.10051433  0.57739365    -0.80000
C397        C  0.26383950  0.14360929  0.51509652     1.01100
C398        C  0.26414492  0.11411363  0.60799987     1.07000
O399        O  0.26780524  0.15721366  0.54567328    -0.75600
C400        C  0.35589513  0.10092445  0.98597276     1.05300
C401        C  0.38280402  0.09431227  0.92166304    -0.10900
C402        C  0.36928744  0.09429081  0.95062025    -0.12500
C403        C  0.38318560  0.16380492  0.70059256    -0.10900
C404        C  0.36967053  0.16379007  0.67163398    -0.12500
C405        C  0.21523516  0.15053416  0.97787774    -0.10900
C406        C  0.23776188  0.14813434  0.99441815    -0.12500
C407        C  0.01431451  0.14863518  0.87885645    -0.10900
C408        C  0.03678738  0.15097531  0.89553152    -0.12500
C409        C  0.23815820  0.10958189  0.62886008    -0.10900
C410        C  0.21567690  0.10726239  0.64552027    -0.12500
C411        C  0.01471326  0.10986651  0.74442692    -0.10900
C412        C  0.03723097  0.10745231  0.72786930    -0.12500
C413        C  0.09149207  0.12221592  0.57625034    -0.10900
C414        C  0.09139465  0.13569836  0.54726545    -0.12500
C415        C  0.16105017  0.12242555  0.79726002    -0.10900
C416        C  0.16095327  0.13589152  0.82625797    -0.12500
C417        C  0.14829228  0.46832986  0.60293558    -0.10900
C418        C  0.14585626  0.49082627  0.61956366    -0.12500
C419        C  0.14551146  0.26722731  0.50423619    -0.10900
C420        C  0.14796418  0.28972866  0.52084784    -0.12500
C421        C  0.10715490  0.49085540  0.75416528    -0.10900
C422        C  0.10477567  0.46835963  0.77080177    -0.12500
C423        C  0.13299274  0.41380176  0.95140476    -0.10900
C424        C  0.11947629  0.41381052  0.92244744    -0.12500
C425        C  0.11985145  0.34431808  0.70137823    -0.10900
C426        C  0.13336742  0.34430259  0.67242063    -0.12500
C427        C  0.10445986  0.28981623  0.85298445    -0.10900
C428        C  0.10681976  0.26732466  0.86963608    -0.12500
C429        C  0.26451947  0.35968660  0.99421435    -0.10900
C430        C  0.28699624  0.35735004  0.97754895    -0.12500
C431        C  0.46544413  0.35735830  0.89520412    -0.10900
C432        C  0.48796633  0.35976052  0.87865256    -0.12500
C433        C  0.39778847  0.21834931  0.85225119    -0.10900
C434        C  0.39539561  0.24084015  0.86889436    -0.12500
C435        C  0.35670221  0.24082814  0.50349454    -0.10900
C436        C  0.35428155  0.21832560  0.52011392    -0.12500
C437        C  0.26487820  0.39823932  0.62865626    -0.10900
C438        C  0.28740905  0.40062169  0.64519247    -0.12500
C439        C  0.48832315  0.39853012  0.74422261    -0.10900
C440        C  0.46585505  0.40088194  0.72754098    -0.12500
C441        C  0.41116383  0.37219261  0.54681245    -0.10900
C442        C  0.41126227  0.38567501  0.57579740    -0.12500
C443        C  0.34170607  0.38590233  0.79680635    -0.10900
C444        C  0.34160753  0.37243615  0.82580400    -0.12500
C445        C  0.39829183  0.03980611  0.77006829    -0.10900
C446        C  0.39594543  0.01730967  0.75342369    -0.12500
C447        C  0.35478059  0.03972590  0.60220522    -0.10900
C448        C  0.35724759  0.01722984  0.61882474    -0.12500
Fe449      Fe  0.37664656  0.88963035  0.18640440     1.65800
Fe450      Fe  0.34477624  0.95323561  0.20899866     1.73200
Fe451      Fe  0.40844066  0.95321289  0.16335747     1.54400
O452        O  0.43735461  0.93383158  0.19767274    -0.79300
O453        O  0.34827843  0.98736527  0.17027946    -0.77700
O454        O  0.42046600  0.88846511  0.20251483    -0.81900
O455        O  0.38647547  0.88629631  0.13124322    -0.76700
O456        O  0.40495727  0.98738534  0.20203090    -0.78500
O457        O  0.31593576  0.93375654  0.17467660    -0.81200
C458        C  0.40470963  0.89911626  0.11113922     0.99500
C459        C  0.43975656  0.90784658  0.20812615     1.07000
O460        O  0.37662503  0.93175222  0.18624892    -1.10200
O461        O  0.33653544  0.92289453  0.25160106    -0.72600
O462        O  0.36682452  0.88650604  0.24159424    -0.76100
O463        O  0.41657311  0.92279346  0.12081184    -0.76800
C464        C  0.34843645  0.89929644  0.26148623     0.98400
O465        O  0.33281555  0.88835874  0.17030971    -0.74800
O466        O  0.37214049  0.97414841  0.24421965    -0.80000
C467        C  0.36184910  0.99123752  0.13967282     1.01100
C468        C  0.39136833  0.99129306  0.23262269     1.07000
O469        O  0.38105773  0.97407122  0.12810088    -0.75600
C470        C  0.31352957  0.90770618  0.16448978     1.05300
Fe471      Fe  0.37622624  0.86847349  0.43641295     1.65800
Fe472      Fe  0.40800622  0.80482453  0.45904709     1.73200
Fe473      Fe  0.34434008  0.80493557  0.41340868     1.54400
O474        O  0.31546018  0.82435949  0.44771879    -0.79300
O475        O  0.40444867  0.77069423  0.42033656    -0.77700
O476        O  0.33240510  0.86970750  0.45252050    -0.81900
O477        O  0.36640767  0.87180038  0.38124538    -0.76700
O478        O  0.34777109  0.77076358  0.45208999    -0.78500
O479        O  0.43687893  0.82426044  0.42471663    -0.81200
C480        C  0.34814712  0.85900389  0.36115642     0.99500
C481        C  0.31309028  0.85035215  0.45814838     1.07000
O482        O  0.37618712  0.82635178  0.43629115    -1.10200
O483        O  0.41628450  0.83516819  0.00163849    -0.72600
O484        O  0.38605443  0.87160273  0.49159807    -0.76100
O485        O  0.33624274  0.83535429  0.37085412    -0.76800
C486        C  0.40442015  0.85879124  0.01150196     0.98400
O487        O  0.42005721  0.86967786  0.42032125    -0.74800
O488        O  0.38061437  0.78394096  0.49427644    -0.80000
C489        C  0.39086474  0.76684462  0.38973433     1.01100
C490        C  0.36134896  0.76683310  0.48268516     1.07000
O491        O  0.37169316  0.78404811  0.37815808    -0.75600
C492        C  0.43931837  0.85030461  0.41451241     1.05300
Fe493      Fe  0.11575601  0.87907294  0.31190397     1.65800
Fe494      Fe  0.05217676  0.91093865  0.33458373     1.73200
Fe495      Fe  0.05222599  0.84729301  0.28879411     1.54400
O496        O  0.08268352  0.83910553  0.24632193    -0.79300
O497        O  0.03118234  0.88351812  0.36967993    -0.77700
O498        O  0.11911277  0.86926801  0.25673011    -0.81900
O499        O  0.11688954  0.83521967  0.32796771    -0.76700
O500        O  0.03146904  0.87474888  0.25352283    -0.78500
O501        O  0.08245678  0.91905765  0.37729723    -0.81200
C502        C  0.09750622  0.81593359  0.33358766     0.99500
C503        C  0.10634968  0.85096801  0.23665725     1.07000
O504        O  0.07366101  0.87910209  0.31176491    -1.10200
O505        O  0.07170251  0.93985819  0.30040453    -0.72600
O506        O  0.11704012  0.92292442  0.29585416    -0.76100
O507        O  0.07153672  0.81835349  0.32314974    -0.76800
C508        C  0.09771434  0.94224307  0.29013393     0.98400
O509        O  0.11889813  0.88887574  0.36709381    -0.74800
O510        O  0.01813002  0.90751250  0.29573689    -0.80000
C511        C  0.01403236  0.86433387  0.35796563     1.01100
C512        C  0.01429525  0.89395619  0.26509676     1.07000
O513        O  0.01799357  0.85077735  0.32735500    -0.75600
C514        C  0.10607634  0.90717473  0.38709845     1.05300
Fe515      Fe  0.13707814  0.87904471  0.06190423     1.65800
Fe516      Fe  0.20064199  0.84714754  0.08452050     1.73200
Fe517      Fe  0.20059654  0.91084753  0.03885320     1.54400
O518        O  0.17011967  0.91905984  0.49640244    -0.79300
O519        O  0.22164016  0.87452708  0.11966510    -0.77700
O520        O  0.13375402  0.88879543  0.50671449    -0.81900
O521        O  0.13592226  0.92291689  0.07789292    -0.76700
O522        O  0.22135445  0.88342854  0.50353490    -0.78500
O523        O  0.17034245  0.83900366  0.12721288    -0.81200
C524        C  0.15529581  0.94219831  0.08358956     0.99500
C525        C  0.14648827  0.90714712  0.48668749     1.07000
O526        O  0.17916803  0.87901280  0.06176339    -1.10200
O527        O  0.18111592  0.81825812  0.05028888    -0.72600
O528        O  0.13576564  0.83517413  0.04592927    -0.76100
O529        O  0.18128937  0.93976113  0.07325921    -0.76800
C530        C  0.15507939  0.81585880  0.04012867     0.98400
O531        O  0.13397137  0.86929613  0.11711181    -0.74800
O532        O  0.23469408  0.85061685  0.04568568    -0.80000
C533        C  0.23879865  0.89371465  0.10798072     1.01100
C534        C  0.23853476  0.86421702  0.01507843     1.07000
O535        O  0.23483346  0.90731594  0.07740307    -0.75600
C536        C  0.14676116  0.85094121  0.13706786     1.05300
Fe537      Fe  0.12645489  0.61847967  0.18663091     1.65800
Fe538      Fe  0.09459146  0.55485413  0.16402640     1.73200
Fe539      Fe  0.15825670  0.55491725  0.20966759     1.54400
O540        O  0.18716989  0.57431013  0.17536758    -0.79300
O541        O  0.09811234  0.52072040  0.20273397    -0.77700
O542        O  0.17027642  0.61966841  0.17052061    -0.81900
O543        O  0.13628042  0.62181432  0.24179589    -0.76700
O544        O  0.15479224  0.52074965  0.17098154    -0.78500
O545        O  0.06575047  0.57432250  0.19836300    -0.81200
C546        C  0.15450950  0.60899689  0.26190381     0.99500
C547        C  0.18957082  0.60029535  0.16491711     1.07000
O548        O  0.12644016  0.57635769  0.18677068    -1.10200
O549        O  0.08634085  0.58520114  0.12143328    -0.72600
O550        O  0.11662723  0.62160366  0.13144511    -0.76100
O551        O  0.16637951  0.58533012  0.25222354    -0.76800
C552        C  0.09823450  0.60880997  0.11155651     0.98400
O553        O  0.08262626  0.61972792  0.20272750    -0.74800
O554        O  0.12195401  0.53393850  0.12879659    -0.80000
C555        C  0.11169228  0.51686372  0.23333572     1.01100
C556        C  0.14121202  0.51682611  0.14038474     1.07000
O557        O  0.13087303  0.53406059  0.24491495    -0.75600
C558        C  0.06334386  0.60037238  0.20855433     1.05300
Fe559      Fe  0.12598860  0.63963576  0.43664047     1.65800
Fe560      Fe  0.15794291  0.70321690  0.41407797     1.73200
Fe561      Fe  0.09427621  0.70324168  0.45971482     1.54400
O562        O  0.06533144  0.68389119  0.42540605    -0.79300
O563        O  0.15447465  0.73735010  0.45279361    -0.77700
O564        O  0.08216771  0.63851361  0.42053204    -0.81900
O565        O  0.11615617  0.63629666  0.49180015    -0.76700
O566        O  0.09779563  0.73741029  0.42103767    -0.78500
O567        O  0.18675088  0.68370581  0.44840875    -0.81200
C568        C  0.09794966  0.64913509  0.01191930     0.99500
C569        C  0.06289773  0.65791193  0.41493929     1.07000
O570        O  0.12606340  0.68175756  0.43681318    -1.10200
O571        O  0.16615743  0.67287098  0.37147558    -0.72600
O572        O  0.13580691  0.63651803  0.38144896    -0.76100
O573        O  0.08611707  0.67282710  0.00226029    -0.76800
C574        C  0.15422428  0.64928918  0.36157467     0.98400
O575        O  0.16981844  0.63831933  0.45273541    -0.74800
O576        O  0.13060977  0.72416144  0.37885397    -0.80000
C577        C  0.14090530  0.74123003  0.48339786     1.01100
C578        C  0.11138969  0.74131155  0.39044639     1.07000
O579        O  0.12168695  0.72406988  0.49497104    -0.76400
C580        C  0.18912562  0.65764857  0.45857671     1.05300
Fe581      Fe  0.38690187  0.62905360  0.31112490     1.65800
Fe582      Fe  0.45046172  0.66100005  0.28849047     1.73200
Fe583      Fe  0.45045080  0.59735305  0.33427743     1.54400
O584        O  0.41998887  0.58913520  0.37673766    -0.79300
O585        O  0.47149326  0.63360894  0.25339992    -0.77700
O586        O  0.38353086  0.61924386  0.36629641    -0.81900
O587        O  0.38581343  0.58519939  0.29506111    -0.76700
O588        O  0.47117147  0.62483575  0.36955619    -0.78500
O589        O  0.42018593  0.66909065  0.24576554    -0.81200
C590        C  0.40521485  0.56593483  0.28946106     0.99500
C591        C  0.39630691  0.60096712  0.38638434     1.07000
O592        O  0.42899678  0.62913465  0.31129140    -1.10200
O593        O  0.43089879  0.68988965  0.32266881    -0.72600
O594        O  0.38557201  0.67290375  0.32717531    -0.76100
O595        O  0.43117713  0.56838573  0.29991873    -0.76800
C596        C  0.40487944  0.69224363  0.33291767     0.98400
O597        O  0.38377457  0.63885290  0.25593283    -0.74800
O598        O  0.48450342  0.65760839  0.32734679    -0.80000
C599        C  0.48864746  0.61443417  0.26511636     1.01100
C600        C  0.48834044  0.64405363  0.35798606     1.07000
O601        O  0.48468801  0.60087397  0.29572637    -0.75600
C602        C  0.39658268  0.65717671  0.23594478     1.05300
Fe603      Fe  0.36558124  0.62904867  0.06112183     1.65800
Fe604      Fe  0.30203341  0.59707676  0.03854965     1.73200
Fe605      Fe  0.30204681  0.66077764  0.08421506     1.54400
O606        O  0.33252750  0.66901781  0.12665553    -0.79300
O607        O  0.28099956  0.62442893  0.00341054    -0.77700
O608        O  0.36891988  0.63880471  0.11631073    -0.81900
O609        O  0.36669635  0.67292177  0.04513270    -0.76700
O610        O  0.28132273  0.63333460  0.11954072    -0.78500
O611        O  0.33232800  0.58895755  0.49584609    -0.81200
C612        C  0.34730636  0.69218355  0.03945695     0.99500
C613        C  0.35617315  0.65713334  0.13635324     1.07000
O614        O  0.32349130  0.62896878  0.06128896    -1.10200
O615        O  0.32159417  0.56821548  0.07278088    -0.72600
O616        O  0.36693503  0.58517963  0.07709755    -0.76100
O617        O  0.32131999  0.68971781  0.04980759    -0.76800
C618        C  0.34763782  0.56584500  0.08292020     0.98400
O619        O  0.36867267  0.61930297  0.00591251    -0.74800
O620        O  0.26798627  0.60051494  0.07739349    -0.80000
C621        C  0.26383994  0.64361020  0.01509671     1.01100
C622        C  0.26414490  0.61411403  0.10799972     1.07000
O623        O  0.26780547  0.65721433  0.04567373    -0.75600
C624        C  0.35589453  0.60092331  0.48597224     1.05300
C625        C  0.38280334  0.59431095  0.42166266    -0.10900
C626        C  0.36928658  0.59428937  0.45061990    -0.12500
C627        C  0.38318527  0.66380536  0.20059341    -0.10900
C628        C  0.36967022  0.66379058  0.17163500    -0.12500
C629        C  0.21523471  0.65053375  0.47787766    -0.10900
C630        C  0.23776148  0.64813359  0.49441800    -0.12500
C631        C  0.01431356  0.64863460  0.37885766    -0.10900
C632        C  0.03678656  0.65097481  0.39553260    -0.12500
C633        C  0.23815799  0.60958221  0.12885983    -0.10900
C634        C  0.21567675  0.60726260  0.14551997    -0.12500
C635        C  0.01471319  0.60986698  0.24442755    -0.10900
C636        C  0.03723087  0.60745293  0.22787003    -0.12500
C637        C  0.09149194  0.62221599  0.07625035    -0.10900
C638        C  0.09139480  0.63569842  0.04726534    -0.12500
C639        C  0.16104979  0.62242549  0.29726037    -0.10900
C640        C  0.16095258  0.63589132  0.32625821    -0.12500
C641        C  0.14829223  0.96833053  0.10293493    -0.10900
C642        C  0.14585597  0.99082686  0.11956322    -0.12500
C643        C  0.14551202  0.76722772  0.00423556    -0.10900
C644        C  0.14796469  0.78972930  0.02084690    -0.12500
C645        C  0.10715483  0.99085513  0.25416538    -0.10900
C646        C  0.10477561  0.96835948  0.27080195    -0.12500
C647        C  0.13299231  0.91379994  0.45140530    -0.10900
C648        C  0.11947611  0.91380893  0.42244792    -0.12500
C649        C  0.11985136  0.84431856  0.20137701    -0.10900
C650        C  0.13336739  0.84430331  0.17241946    -0.12500
C651        C  0.10445919  0.78981560  0.35298360    -0.10900
C652        C  0.10681906  0.76732415  0.36963549    -0.12500
C653        C  0.26451947  0.85968591  0.49421550    -0.10900
C654        C  0.28699626  0.85734973  0.47754987    -0.12500
C655        C  0.46544369  0.85735762  0.39520334    -0.10900
C656        C  0.48796578  0.85975956  0.37865146    -0.12500
C657        C  0.39778780  0.71834893  0.35225182    -0.10900
C658        C  0.39539496  0.74084004  0.36889490    -0.12500
C659        C  0.35670267  0.74082850  0.00349529    -0.10900
C660        C  0.35428192  0.71832632  0.02011491    -0.12500
C661        C  0.26487860  0.89823986  0.12865544    -0.10900
C662        C  0.28740946  0.90062199  0.14519172    -0.12500
C663        C  0.48832347  0.89853083  0.24422207    -0.10900
C664        C  0.46585537  0.90088281  0.22754024    -0.12500
C665        C  0.41116399  0.87219287  0.04681169    -0.10900
C666        C  0.41126254  0.88567529  0.07579678    -0.12500
C667        C  0.34170656  0.88590267  0.29680577    -0.10900
C668        C  0.34160782  0.87243651  0.32580385    -0.12500
C669        C  0.39829161  0.53980647  0.27006759    -0.10900
C670        C  0.39594537  0.51731002  0.25342268    -0.12500
C671        C  0.35478073  0.53972633  0.10220492    -0.10900
C672        C  0.35724768  0.51723017  0.11882400    -0.12500
Fe673      Fe  0.37664614  0.88963001  0.68640509     1.65800
Fe674      Fe  0.34477593  0.95323541  0.70899930     1.73200
Fe675      Fe  0.40844047  0.95321249  0.66335835     1.54400
O676        O  0.43735424  0.93383095  0.69767366    -0.79300
O677        O  0.34827815  0.98736504  0.67028009    -0.77700
O678        O  0.42046557  0.88846452  0.70251553    -0.81900
O679        O  0.38647504  0.88629602  0.63124390    -0.76700
O680        O  0.40495724  0.98738487  0.70203192    -0.78500
O681        O  0.31593545  0.93375631  0.67467713    -0.81200
C682        C  0.40470924  0.89911595  0.61114004     0.99500
C683        C  0.43975615  0.90784588  0.70812700     1.07000
O684        O  0.37662474  0.93175193  0.68624967    -1.10200
O685        O  0.33653508  0.92289428  0.75160159    -0.72600
O686        O  0.36682403  0.88650568  0.74159483    -0.76100
O687        O  0.41657279  0.92279308  0.62081267    -0.76800
C688        C  0.34843600  0.89929629  0.76148662     0.98400
O689        O  0.33281513  0.88835844  0.67031044    -0.74800
O690        O  0.37214010  0.97414823  0.74422043    -0.80000
C691        C  0.36184896  0.99123740  0.63967355     1.01100
C692        C  0.39136817  0.99129272  0.73262358     1.07000
O693        O  0.38105767  0.97407100  0.62810173    -0.75600
C694        C  0.31352915  0.90770599  0.66449043     1.05300
Fe695      Fe  0.37622638  0.86847346  0.93641265     1.65800
Fe696      Fe  0.40800666  0.80482472  0.95904673     1.73200
Fe697      Fe  0.34434036  0.80493541  0.91340902     1.54400
O698        O  0.31546058  0.82435932  0.94771928    -0.79300
O699        O  0.40444910  0.77069432  0.92033625    -0.77700
O700        O  0.33240513  0.86970750  0.95251946    -0.81900
O701        O  0.36640819  0.87179992  0.88124494    -0.76700
O702        O  0.34777167  0.77076349  0.95209034    -0.78500
O703        O  0.43687915  0.82426069  0.92471607    -0.81200
C704        C  0.34814717  0.85900343  0.86115662     0.99500
C705        C  0.31309046  0.85035215  0.95814796     1.07000
O706        O  0.37618746  0.82635177  0.93629096    -1.10200
O707        O  0.41628404  0.83516773  0.50163912    -0.72600
O708        O  0.38605416  0.87160270  0.99159786    -0.76100
O709        O  0.33624263  0.83535417  0.87085460    -0.76800
C710        C  0.40442005  0.85879093  0.51150236     0.98400
O711        O  0.42005745  0.86967816  0.92032169    -0.74800
O712        O  0.38061509  0.78394112  0.99427641    -0.80000
C713        C  0.39086516  0.76684479  0.88973403     1.01100
C714        C  0.36134960  0.76683328  0.98268544     1.07000
O715        O  0.37169325  0.78404796  0.87815808    -0.75600
C716        C  0.43931861  0.85030509  0.91451250     1.05300
Fe717      Fe  0.11575606  0.87907343  0.81190438     1.65800
Fe718      Fe  0.05217683  0.91093924  0.83458368     1.73200
Fe719      Fe  0.05222616  0.84729308  0.78879539     1.54400
O720        O  0.08268373  0.83910525  0.74632329    -0.79300
O721        O  0.03118267  0.88351907  0.86968064    -0.77700
O722        O  0.11911262  0.86926839  0.75673059    -0.81900
O723        O  0.11688991  0.83522018  0.82796822    -0.76700
O724        O  0.03146897  0.87474842  0.75352367    -0.78500
O725        O  0.08245713  0.91905897  0.87729660    -0.81200
C726        C  0.09750664  0.81593415  0.83358882     0.99500
C727        C  0.10634981  0.85096786  0.73665830     1.07000
O728        O  0.07366109  0.87910249  0.81176545    -1.10200
O729        O  0.07170232  0.93985837  0.80040364    -0.72600
O730        O  0.11704012  0.92292491  0.79585459    -0.76100
O731        O  0.07153700  0.81835404  0.82315156    -0.76800
C732        C  0.09771429  0.94224332  0.79013376     0.98400
O733        O  0.11889804  0.88887632  0.86709419    -0.74800
O734        O  0.01812995  0.90751243  0.79573719    -0.80000
C735        C  0.01403283  0.86433457  0.85796672     1.01100
C736        C  0.01429513  0.89395578  0.76509734     1.07000
O737        O  0.01799386  0.85077784  0.82735629    -0.75600
C738        C  0.10607655  0.90717585  0.88709826     1.05300
Fe739      Fe  0.13707788  0.87904384  0.56190554     1.65800
Fe740      Fe  0.20064175  0.84714649  0.58452133     1.73200
Fe741      Fe  0.20059628  0.91084635  0.53885375     1.54400
O742        O  0.17011997  0.91906131  0.99640211    -0.79300
O743        O  0.22164002  0.87452602  0.61966579    -0.77700
O744        O  0.13375456  0.88879646  0.00671329    -0.81900
O745        O  0.13592213  0.92291612  0.57789403    -0.76700
O746        O  0.22135474  0.88342986  0.00353413    -0.78500
O747        O  0.17034221  0.83900257  0.62721375    -0.81200
C748        C  0.15529572  0.94219758  0.58359012     0.99500
C749        C  0.14648871  0.90714847  0.98668671     1.07000
O750        O  0.17916778  0.87901176  0.56176424    -1.10200
O751        O  0.18111560  0.81825722  0.55028969    -0.72600
O752        O  0.13576523  0.83517327  0.54593077    -0.76100
O753        O  0.18128918  0.93976033  0.57325944    -0.76800
C754        C  0.15507898  0.81585793  0.54012961     0.98400
O755        O  0.13397140  0.86929546  0.61711318    -0.74800
O756        O  0.23469394  0.85061581  0.54568661    -0.80000
C757        C  0.23879836  0.89371368  0.60798146     1.01100
C758        C  0.23853463  0.86421589  0.51507932     1.07000
O759        O  0.23483309  0.90731504  0.57740381    -0.75600
C760        C  0.14676117  0.85094037  0.63706905     1.05300
Fe761      Fe  0.12645512  0.61847943  0.68663089     1.65800
Fe762      Fe  0.09459195  0.55485384  0.66402603     1.73200
Fe763      Fe  0.15825699  0.55491709  0.70966760     1.54400
O764        O  0.18717013  0.57430982  0.67536751    -0.79300
O765        O  0.09811276  0.52072033  0.70273366    -0.77700
O766        O  0.17027669  0.61966819  0.67052079    -0.81900
O767        O  0.13628044  0.62181400  0.74179584    -0.76700
O768        O  0.15479256  0.52074922  0.67098178    -0.78500
O769        O  0.06575079  0.57432212  0.69836240    -0.81200
C770        C  0.15450970  0.60899686  0.76190366     0.99500
C771        C  0.18957110  0.60029502  0.66491719     1.07000
O772        O  0.12644046  0.57635746  0.68677060    -1.10200
O773        O  0.08634137  0.58520082  0.62143297    -0.72600
O774        O  0.11662749  0.62160353  0.63144504    -0.76100
O775        O  0.16637993  0.58533012  0.75222325    -0.76800
C776        C  0.09823480  0.60880980  0.61155637     0.98400
O777        O  0.08262638  0.61972762  0.70272726    -0.74800
O778        O  0.12195477  0.53393829  0.62879640    -0.80000
C779        C  0.11169255  0.51686379  0.73333557     1.01100
C780        C  0.14121251  0.51682572  0.64038493     1.07000
O781        O  0.13087317  0.53406076  0.74491493    -0.75600
C782        C  0.06334395  0.60037195  0.70855382     1.05300
Fe783      Fe  0.12598925  0.63963599  0.93664042     1.65800
Fe784      Fe  0.15794343  0.70321719  0.91407760     1.73200
Fe785      Fe  0.09427682  0.70324194  0.95971476     1.54400
O786        O  0.06533196  0.68389139  0.92540599    -0.79300
O787        O  0.15447529  0.73735034  0.95279339    -0.77700
O788        O  0.08216844  0.63851391  0.92053124    -0.81900
O789        O  0.11615628  0.63629668  0.99179997    -0.76700
O790        O  0.09779620  0.73741056  0.92103776    -0.78500
O791        O  0.18675157  0.68370604  0.94840815    -0.81200
C792        C  0.09794949  0.64913490  0.51191938     0.99500
C793        C  0.06289841  0.65791228  0.91493870     1.07000
O794        O  0.12606401  0.68175782  0.93681300    -1.10200
O795        O  0.16615781  0.67287142  0.87147506    -0.72600
O796        O  0.13580799  0.63651803  0.88144907    -0.76100
O797        O  0.08611652  0.67282679  0.50226021    -0.76800
C798        C  0.15422500  0.64928931  0.86157441     0.98400
O799        O  0.16981893  0.63831967  0.95273594    -0.74800
O800        O  0.13061012  0.72416174  0.87885379    -0.80000
C801        C  0.14090586  0.74123028  0.98339749     1.01100
C802        C  0.11139020  0.74131194  0.89044651     1.07000
O803        O  0.12168763  0.72407020  0.99497092    -0.76400
C804        C  0.18912614  0.65764886  0.95857677     1.05300
Fe805      Fe  0.38690235  0.62905386  0.81112456     1.65800
Fe806      Fe  0.45046222  0.66100012  0.78848954     1.73200
Fe807      Fe  0.45045136  0.59735343  0.83427735     1.54400
O808        O  0.41998963  0.58913616  0.87673806    -0.79300
O809        O  0.47149359  0.63360870  0.75339919    -0.77700
O810        O  0.38353136  0.61924439  0.86629619    -0.81900
O811        O  0.38581384  0.58519959  0.79506119    -0.76700
O812        O  0.47117234  0.62483639  0.86955558    -0.78500
O813        O  0.42018632  0.66909046  0.74576458    -0.81200
C814        C  0.40521512  0.56593484  0.78946153     0.99500
C815        C  0.39630764  0.60096798  0.88638448     1.07000
O816        O  0.42899728  0.62913486  0.81129092    -1.10200
O817        O  0.43089940  0.68989000  0.82266772    -0.72600
O818        O  0.38557268  0.67290406  0.82717460    -0.76100
O819        O  0.43117742  0.56838576  0.79991929    -0.76800
C820        C  0.40488009  0.69224388  0.83291683     0.98400
O821        O  0.38377495  0.63885284  0.75593237    -0.74800
O822        O  0.48450419  0.65760870  0.82734568    -0.80000
C823        C  0.48864781  0.61443388  0.76511574     1.01100
C824        C  0.48834133  0.64405416  0.85798510     1.07000
O825        O  0.48468836  0.60087385  0.79572585    -0.75600
C826        C  0.39658306  0.65717645  0.73594396     1.05300
Fe827      Fe  0.36558102  0.62904800  0.56112086     1.65800
Fe828      Fe  0.30203304  0.59707596  0.53854967     1.73200
Fe829      Fe  0.30204675  0.66077710  0.58421449     1.54400
O830        O  0.33252762  0.66901726  0.62665475    -0.79300
O831        O  0.28099900  0.62442785  0.50341043    -0.77700
O832        O  0.36892003  0.63880422  0.61630970    -0.81900
O833        O  0.36669605  0.67292099  0.54513145    -0.76700
O834        O  0.28132289  0.63333420  0.61954045    -0.78500
O835        O  0.33232862  0.58895872  0.99584617    -0.81200
C836        C  0.34730610  0.69218286  0.53945583     0.99500
C837        C  0.35617344  0.65713283  0.63635232     1.07000
O838        O  0.32349108  0.62896817  0.56128840    -1.10200
O839        O  0.32159397  0.56821491  0.57278103    -0.72600
O840        O  0.36693483  0.58517907  0.57709704    -0.76100
O841        O  0.32131973  0.68971707  0.54980667    -0.76800
C842        C  0.34763771  0.56584447  0.58292023     0.98400
O843        O  0.36867200  0.61930208  0.50591157    -0.74800
O844        O  0.26798610  0.60051439  0.57739363    -0.80000
C845        C  0.26383951  0.64360932  0.51509655     1.01100
C846        C  0.26414494  0.61411361  0.60799986     1.07000
O847        O  0.26780526  0.65721362  0.54567336    -0.75600
C848        C  0.35589519  0.60092454  0.98597271     1.05300
C849        C  0.38280408  0.59431215  0.92166300    -0.10900
C850        C  0.36928744  0.59429078  0.95062027    -0.12500
C851        C  0.38318558  0.66380492  0.70059256    -0.10900
C852        C  0.36967052  0.66379009  0.67163404    -0.12500
C853        C  0.21523517  0.65053421  0.97787779    -0.10900
C854        C  0.23776193  0.64813436  0.99441818    -0.12500
C855        C  0.01431452  0.64863521  0.87885644    -0.10900
C856        C  0.03678740  0.65097535  0.89553151    -0.12500
C857        C  0.23815818  0.60958195  0.62886007    -0.10900
C858        C  0.21567690  0.60726239  0.64552024    -0.12500
C859        C  0.01471328  0.60986658  0.74442695    -0.10900
C860        C  0.03723099  0.60745233  0.72786931    -0.12500
C861        C  0.09149201  0.62221592  0.57625038    -0.10900
C862        C  0.09139464  0.63569840  0.54726541    -0.12500
C863        C  0.16105018  0.62242558  0.79725999    -0.10900
C864        C  0.16095322  0.63589146  0.82625798    -0.12500
C865        C  0.14829229  0.96832984  0.60293557    -0.10900
C866        C  0.14585632  0.99082628  0.61956363    -0.12500
C867        C  0.14551150  0.76722715  0.50423608    -0.10900
C868        C  0.14796421  0.78972871  0.52084787    -0.12500
C869        C  0.10715495  0.99085523  0.75416536    -0.10900
C870        C  0.10477574  0.96835966  0.77080179    -0.12500
C871        C  0.13299272  0.91380169  0.95140478    -0.10900
C872        C  0.11947630  0.91381063  0.92244744    -0.12500
C873        C  0.11985145  0.84431809  0.70137818    -0.10900
C874        C  0.13336741  0.84430254  0.67242063    -0.12500
C875        C  0.10445982  0.78981620  0.85298442    -0.10900
C876        C  0.10681973  0.76732465  0.86963606    -0.12500
C877        C  0.26451948  0.85968663  0.99421442    -0.10900
C878        C  0.28699622  0.85735006  0.97754897    -0.12500
C879        C  0.46544405  0.85735839  0.89520412    -0.10900
C880        C  0.48796628  0.85976046  0.87865252    -0.12500
C881        C  0.39778850  0.71834931  0.85225118    -0.10900
C882        C  0.39539555  0.74084021  0.86889431    -0.12500
C883        C  0.35670222  0.74082810  0.50349446    -0.10900
C884        C  0.35428154  0.71832564  0.52011393    -0.12500
C885        C  0.26487820  0.89823922  0.62865625    -0.10900
C886        C  0.28740905  0.90062169  0.64519250    -0.12500
C887        C  0.48832321  0.89853008  0.74422264    -0.10900
C888        C  0.46585499  0.90088199  0.72754096    -0.12500
C889        C  0.41116383  0.87219265  0.54681238    -0.10900
C890        C  0.41126217  0.88567497  0.57579731    -0.12500
C891        C  0.34170608  0.88590236  0.79680639    -0.10900
C892        C  0.34160753  0.87243619  0.82580398    -0.12500
C893        C  0.39829181  0.53980626  0.77006835    -0.10900
C894        C  0.39594541  0.51730965  0.75342369    -0.12500
C895        C  0.35478061  0.53972594  0.60220523    -0.10900
C896        C  0.35724756  0.51722980  0.61882471    -0.12500
Fe897      Fe  0.87664658  0.38963039  0.18640440     1.65800
Fe898      Fe  0.84477627  0.45323559  0.20899864     1.73200
Fe899      Fe  0.90844063  0.45321291  0.16335744     1.54400
O900        O  0.93735460  0.43383159  0.19767276    -0.79300
O901        O  0.84827845  0.48736529  0.17027948    -0.77700
O902        O  0.92046598  0.38846513  0.20251480    -0.81900
O903        O  0.88647548  0.38629634  0.13124319    -0.76700
O904        O  0.90495727  0.48738533  0.20203088    -0.78500
O905        O  0.81593578  0.43375653  0.17467656    -0.81200
C906        C  0.90470963  0.39911631  0.11113919     0.99500
C907        C  0.93975658  0.40784658  0.20812616     1.07000
O908        O  0.87662505  0.43175223  0.18624894    -1.10200
O909        O  0.83653548  0.42289451  0.25160106    -0.72600
O910        O  0.86682450  0.38650600  0.24159421    -0.76100
O911        O  0.91657312  0.42279349  0.12081179    -0.76800
C912        C  0.84843646  0.39929645  0.26148617     0.98400
O913        O  0.83281558  0.38835875  0.17030975    -0.74800
O914        O  0.87214052  0.47414838  0.24421968    -0.80000
C915        C  0.86184908  0.49123760  0.13967278     1.01100
C916        C  0.89136836  0.49129309  0.23262275     1.07000
O917        O  0.88105770  0.47407127  0.12810084    -0.75600
C918        C  0.81352958  0.40770622  0.16448978     1.05300
Fe919      Fe  0.87622623  0.36847349  0.43641293     1.65800
Fe920      Fe  0.90800623  0.30482459  0.45904708     1.73200
Fe921      Fe  0.84434009  0.30493558  0.41340868     1.54400
O922        O  0.81546018  0.32435953  0.44771879    -0.79300
O923        O  0.90444870  0.27069427  0.42033653    -0.77700
O924        O  0.83240512  0.36970752  0.45252048    -0.81900
O925        O  0.86640764  0.37180039  0.38124539    -0.76700
O926        O  0.84777109  0.27076355  0.45209005    -0.78500
O927        O  0.93687894  0.32426050  0.42471665    -0.81200
C928        C  0.84814711  0.35900377  0.36115641     0.99500
C929        C  0.81309030  0.35035218  0.45814836     1.07000
O930        O  0.87618711  0.32635178  0.43629117    -1.10200
O931        O  0.91628455  0.33516819  0.00163855    -0.72600
O932        O  0.88605446  0.37160281  0.49159807    -0.76100
O933        O  0.83624274  0.33535429  0.37085409    -0.76800
C934        C  0.90442015  0.35879122  0.01150199     0.98400
O935        O  0.92005724  0.36967792  0.42032120    -0.74800
O936        O  0.88061437  0.28394101  0.49427645    -0.80000
C937        C  0.89086476  0.26684470  0.38973436     1.01100
C938        C  0.86134896  0.26683306  0.48268520     1.07000
O939        O  0.87169317  0.28404810  0.37815805    -0.75600
C940        C  0.93931837  0.35030465  0.41451241     1.05300
Fe941      Fe  0.61575599  0.37907291  0.31190391     1.65800
Fe942      Fe  0.55217676  0.41093868  0.33458369     1.73200
Fe943      Fe  0.55222599  0.34729303  0.28879418     1.54400
O944        O  0.58268346  0.33910549  0.24632188    -0.79300
O945        O  0.53118226  0.38351820  0.36967992    -0.77700
O946        O  0.61911273  0.36926794  0.25673009    -0.81900
O947        O  0.61688956  0.33521960  0.32796774    -0.76700
O948        O  0.53146903  0.37474886  0.25352290    -0.78500
O949        O  0.58245682  0.41905766  0.37729717    -0.81200
C950        C  0.59750623  0.31593352  0.33358774     0.99500
C951        C  0.60634963  0.35096785  0.23665725     1.07000
O952        O  0.57366101  0.37910212  0.31176492    -1.10200
O953        O  0.57170254  0.43985823  0.30040446    -0.72600
O954        O  0.61704013  0.42292440  0.29585408    -0.76100
O955        O  0.57153674  0.31835342  0.32314980    -0.76800
C956        C  0.59771438  0.44224313  0.29013393     0.98400
O957        O  0.61889814  0.38887572  0.36709377    -0.74800
O958        O  0.51813007  0.40751253  0.29573688    -0.80000
C959        C  0.51403238  0.36433386  0.35796562     1.01100
C960        C  0.51429530  0.39395619  0.26509683     1.07000
O961        O  0.51799358  0.35077736  0.32735507    -0.75600
C962        C  0.60607635  0.40717460  0.38709845     1.05300
Fe963      Fe  0.63707813  0.37904476  0.06190424     1.65800
Fe964      Fe  0.70064197  0.34714757  0.08452051     1.73200
Fe965      Fe  0.70059657  0.41084757  0.03885320     1.54400
O966        O  0.67011970  0.41905982  0.49640241    -0.79300
O967        O  0.72164013  0.37452715  0.11966508    -0.77700
O968        O  0.63375399  0.38879549  0.50671450    -0.81900
O969        O  0.63592224  0.42291695  0.07789290    -0.76700
O970        O  0.72135441  0.38342853  0.50353488    -0.78500
O971        O  0.67034246  0.33900373  0.12721294    -0.81200
C972        C  0.65529579  0.44219837  0.08358964     0.99500
C973        C  0.64648828  0.40714713  0.48668749     1.07000
O974        O  0.67916802  0.37901282  0.06176338    -1.10200
O975        O  0.68111593  0.31825816  0.05028893    -0.72600
O976        O  0.63576565  0.33517422  0.04592927    -0.76100
O977        O  0.68128937  0.43976121  0.07325921    -0.76800
C978        C  0.65507940  0.31585887  0.04012869     0.98400
O979        O  0.63397134  0.36929616  0.11711181    -0.74800
O980        O  0.73469404  0.35061691  0.04568569    -0.80000
C981        C  0.73879867  0.39371463  0.10798071     1.01100
C982        C  0.73853476  0.36421707  0.01507840     1.07000
O983        O  0.73483349  0.40731601  0.07740310    -0.75600
C984        C  0.64676115  0.35094120  0.13706783     1.05300
Fe985      Fe  0.62645493  0.11847970  0.18663088     1.65800
Fe986      Fe  0.59459145  0.05485416  0.16402644     1.73200
Fe987      Fe  0.65825669  0.05491726  0.20966759     1.54400
O988        O  0.68716992  0.07431013  0.17536760    -0.79300
O989        O  0.59811234  0.02072048  0.20273394    -0.77700
O990        O  0.67027645  0.11966839  0.17052062    -0.81900
O991        O  0.63628047  0.12181437  0.24179587    -0.76700
O992        O  0.65479224  0.02074962  0.17098151    -0.78500
O993        O  0.56575050  0.07432253  0.19836300    -0.81200
C994        C  0.65450951  0.10899696  0.26190385     0.99500
C995        C  0.68957083  0.10029524  0.16491712     1.07000
O996        O  0.62644016  0.07635772  0.18677069    -1.10200
O997        O  0.58634084  0.08520115  0.12143333    -0.72600
O998        O  0.61662726  0.12160368  0.13144506    -0.76100
O999        O  0.66637946  0.08533010  0.25222357    -0.76800
C1000       C  0.59823452  0.10881003  0.11155647     0.98400
O1001       O  0.58262628  0.11972799  0.20272748    -0.74800
O1002       O  0.62195399  0.03393856  0.12879662    -0.80000
C1003       C  0.61169228  0.01686379  0.23333562     1.01100
C1004       C  0.64121201  0.01682612  0.14038471     1.07000
O1005       O  0.63087305  0.03406055  0.24491492    -0.75600
C1006       C  0.56334383  0.10037234  0.20855435     1.05300
Fe1007     Fe  0.62598862  0.13963585  0.43664050     1.65800
Fe1008     Fe  0.65794288  0.20321697  0.41407793     1.73200
Fe1009     Fe  0.59427618  0.20324173  0.45971478     1.54400
O1010       O  0.56533143  0.18389122  0.42540606    -0.79300
O1011       O  0.65447465  0.23735020  0.45279364    -0.77700
O1012       O  0.58216774  0.13851367  0.42053208    -0.81900
O1013       O  0.61615619  0.13629673  0.49180017    -0.76700
O1014       O  0.59779562  0.23741040  0.42103768    -0.78500
O1015       O  0.68675089  0.18370586  0.44840875    -0.81200
C1016       C  0.59794967  0.14913497  0.01191927     0.99500
C1017       C  0.56289772  0.15791200  0.41493930     1.07000
O1018       O  0.62606340  0.18175764  0.43681317    -1.10200
O1019       O  0.66615740  0.17287104  0.37147555    -0.72600
O1020       O  0.63580693  0.13651807  0.38144898    -0.76100
O1021       O  0.58611714  0.17282712  0.00226029    -0.76800
C1022       C  0.65422429  0.14928915  0.36157464     0.98400
O1023       O  0.66981844  0.13831940  0.45273541    -0.74800
O1024       O  0.63060975  0.22416154  0.37885393    -0.80000
C1025       C  0.64090529  0.24122996  0.48339786     1.01100
C1026       C  0.61138963  0.24131163  0.39044638     1.07000
O1027       O  0.62168693  0.22406996  0.49497105    -0.76400
C1028       C  0.68912560  0.15764853  0.45857669     1.05300
Fe1029     Fe  0.88690186  0.12905368  0.31112489     1.65800
Fe1030     Fe  0.95046173  0.16100016  0.28849047     1.73200
Fe1031     Fe  0.95045080  0.09735316  0.33427740     1.54400
O1032       O  0.91998889  0.08913531  0.37673767    -0.79300
O1033       O  0.97149332  0.13360904  0.25339990    -0.77700
O1034       O  0.88353085  0.11924393  0.36629643    -0.81900
O1035       O  0.88581343  0.08519946  0.29506110    -0.76700
O1036       O  0.97117148  0.12483583  0.36955620    -0.78500
O1037       O  0.92018595  0.16909070  0.24576551    -0.81200
C1038       C  0.90521483  0.06593497  0.28946102     0.99500
C1039       C  0.89630691  0.10096713  0.38638435     1.07000
O1040       O  0.92899677  0.12913478  0.31129142    -1.10200
O1041       O  0.93089878  0.18988975  0.32266887    -0.72600
O1042       O  0.88557200  0.17290382  0.32717532    -0.76100
O1043       O  0.93117710  0.06838582  0.29991874    -0.76800
C1044       C  0.90487943  0.19224365  0.33291771     0.98400
O1045       O  0.88377459  0.13885295  0.25593284    -0.74800
O1046       O  0.98450342  0.15760846  0.32734680    -0.80000
C1047       C  0.98864751  0.11443422  0.26511628     1.01100
C1048       C  0.98834042  0.14405374  0.35798607     1.07000
O1049       O  0.98468804  0.10087401  0.29572628    -0.75600
C1050       C  0.89658271  0.15717682  0.23594478     1.05300
Fe1051     Fe  0.86558124  0.12904865  0.06112180     1.65800
Fe1052     Fe  0.80203342  0.09707673  0.03854966     1.73200
Fe1053     Fe  0.80204680  0.16077761  0.08421506     1.54400
O1054       O  0.83252748  0.16901773  0.12665554    -0.79300
O1055       O  0.78099956  0.12442887  0.00341055    -0.77700
O1056       O  0.86891992  0.13880468  0.11631070    -0.81900
O1057       O  0.86669633  0.17292166  0.04513270    -0.76700
O1058       O  0.78132271  0.13333456  0.11954071    -0.78500
O1059       O  0.83232799  0.08895751  0.49584605    -0.81200
C1060       C  0.84730636  0.19218350  0.03945700     0.99500
C1061       C  0.85617316  0.15713324  0.13635325     1.07000
O1062       O  0.82349130  0.12896877  0.06128898    -1.10200
O1063       O  0.82159420  0.06821543  0.07278085    -0.72600
O1064       O  0.86693502  0.08517963  0.07709755    -0.76100
O1065       O  0.82132000  0.18971774  0.04980768    -0.76800
C1066       C  0.84763784  0.06584499  0.08292020     0.98400
O1067       O  0.86867265  0.11930294  0.00591252    -0.74800
O1068       O  0.76798629  0.10051489  0.07739352    -0.80000
C1069       C  0.76383995  0.14361009  0.01509670     1.01100
C1070       C  0.76414489  0.11411406  0.10799971     1.07000
O1071       O  0.76780551  0.15721428  0.04567370    -0.75600
C1072       C  0.85589455  0.10092331  0.48597222     1.05300
C1073       C  0.88280335  0.09431093  0.42166265    -0.10900
C1074       C  0.86928659  0.09428941  0.45061989    -0.12500
C1075       C  0.88318530  0.16380540  0.20059336    -0.10900
C1076       C  0.86967023  0.16379057  0.17163497    -0.12500
C1077       C  0.71523472  0.15053370  0.47787766    -0.10900
C1078       C  0.73776148  0.14813366  0.49441798    -0.12500
C1079       C  0.51431358  0.14863460  0.37885763    -0.10900
C1080       C  0.53678659  0.15097487  0.39553262    -0.12500
C1081       C  0.73815796  0.10958213  0.12885984    -0.10900
C1082       C  0.71567676  0.10726259  0.14551998    -0.12500
C1083       C  0.51471319  0.10986707  0.24442757    -0.10900
C1084       C  0.53723089  0.10745286  0.22786997    -0.12500
C1085       C  0.59149197  0.12221597  0.07625037    -0.10900
C1086       C  0.59139481  0.13569843  0.04726528    -0.12500
C1087       C  0.66104980  0.12242543  0.29726035    -0.10900
C1088       C  0.66095259  0.13589139  0.32625824    -0.12500
C1089       C  0.64829222  0.46833051  0.10293493    -0.10900
C1090       C  0.64585598  0.49082692  0.11956324    -0.12500
C1091       C  0.64551211  0.26722776  0.00423566    -0.10900
C1092       C  0.64796474  0.28972936  0.02084698    -0.12500
C1093       C  0.60715483  0.49085516  0.25416541    -0.10900
C1094       C  0.60477567  0.46835935  0.27080189    -0.12500
C1095       C  0.63299235  0.41380000  0.45140528    -0.10900
C1096       C  0.61947614  0.41380890  0.42244789    -0.12500
C1097       C  0.61985138  0.34431852  0.20137695    -0.10900
C1098       C  0.63336733  0.34430333  0.17241943    -0.12500
C1099       C  0.60445920  0.28981561  0.35298368    -0.10900
C1100       C  0.60681904  0.26732414  0.36963551    -0.12500
C1101       C  0.76451948  0.35968588  0.49421550    -0.10900
C1102       C  0.78699628  0.35734982  0.47754988    -0.12500
C1103       C  0.96544373  0.35735758  0.39520336    -0.10900
C1104       C  0.98796579  0.35975963  0.37865148    -0.12500
C1105       C  0.89778780  0.21834907  0.35225187    -0.10900
C1106       C  0.89539502  0.24084003  0.36889489    -0.12500
C1107       C  0.85670269  0.24082853  0.00349532    -0.10900
C1108       C  0.85428192  0.21832624  0.02011500    -0.12500
C1109       C  0.76487862  0.39823987  0.12865543    -0.10900
C1110       C  0.78740947  0.40062201  0.14519172    -0.12500
C1111       C  0.98832348  0.39853093  0.24422206    -0.10900
C1112       C  0.96585533  0.40088276  0.22754020    -0.12500
C1113       C  0.91116397  0.37219292  0.04681173    -0.10900
C1114       C  0.91126254  0.38567532  0.07579675    -0.12500
C1115       C  0.84170655  0.38590258  0.29680581    -0.10900
C1116       C  0.84160781  0.37243653  0.32580380    -0.12500
C1117       C  0.89829162  0.03980648  0.27006750    -0.10900
C1118       C  0.89594541  0.01731009  0.25342265    -0.12500
C1119       C  0.85478074  0.03972626  0.10220502    -0.10900
C1120       C  0.85724769  0.01723014  0.11882409    -0.12500
Fe1121     Fe  0.87664620  0.38963009  0.68640513     1.65800
Fe1122     Fe  0.84477590  0.45323541  0.70899925     1.73200
Fe1123     Fe  0.90844047  0.45321252  0.66335822     1.54400
O1124       O  0.93735427  0.43383100  0.69767350    -0.79300
O1125       O  0.84827819  0.48736504  0.67028008    -0.77700
O1126       O  0.92046557  0.38846460  0.70251554    -0.81900
O1127       O  0.88647508  0.38629603  0.63124393    -0.76700
O1128       O  0.90495721  0.48738488  0.70203180    -0.78500
O1129       O  0.81593544  0.43375630  0.67467709    -0.81200
C1130       C  0.90470926  0.39911597  0.61113997     0.99500
C1131       C  0.93975618  0.40784595  0.70812696     1.07000
O1132       O  0.87662473  0.43175199  0.68624961    -1.10200
O1133       O  0.83653505  0.42289428  0.75160155    -0.72600
O1134       O  0.86682410  0.38650575  0.74159489    -0.76100
O1135       O  0.91657276  0.42279311  0.62081255    -0.76800
C1136       C  0.84843595  0.39929624  0.76148660     0.98400
O1137       O  0.83281517  0.38835845  0.67031045    -0.74800
O1138       O  0.87214011  0.47414817  0.74422033    -0.80000
C1139       C  0.86184894  0.49123737  0.63967346     1.01100
C1140       C  0.89136816  0.49129277  0.73262355     1.07000
O1141       O  0.88105765  0.47407101  0.62810161    -0.75600
C1142       C  0.81352918  0.40770593  0.66449043     1.05300
Fe1143     Fe  0.87622636  0.36847344  0.93641268     1.65800
Fe1144     Fe  0.90800669  0.30482472  0.95904671     1.73200
Fe1145     Fe  0.84434038  0.30493537  0.91340898     1.54400
O1146       O  0.81546058  0.32435924  0.94771928    -0.79300
O1147       O  0.90444916  0.27069435  0.92033620    -0.77700
O1148       O  0.83240511  0.36970744  0.95251950    -0.81900
O1149       O  0.86640817  0.37179987  0.88124498    -0.76700
O1150       O  0.84777169  0.27076348  0.95209030    -0.78500
O1151       O  0.93687918  0.32426070  0.92471609    -0.81200
C1152       C  0.84814718  0.35900341  0.86115660     0.99500
C1153       C  0.81309046  0.35035212  0.95814796     1.07000
O1154       O  0.87618745  0.32635176  0.93629095    -1.10200
O1155       O  0.91628403  0.33516780  0.50163911    -0.72600
O1156       O  0.88605413  0.37160265  0.99159790    -0.76100
O1157       O  0.83624266  0.33535408  0.87085457    -0.76800
C1158       C  0.90442005  0.35879103  0.51150235     0.98400
O1159       O  0.92005745  0.36967816  0.92032166    -0.74800
O1160       O  0.88061511  0.28394115  0.99427633    -0.80000
C1161       C  0.89086517  0.26684474  0.88973406     1.01100
C1162       C  0.86134961  0.26683326  0.98268543     1.07000
O1163       O  0.87169326  0.28404791  0.87815806    -0.75600
C1164       C  0.93931861  0.35030500  0.91451250     1.05300
Fe1165     Fe  0.61575604  0.37907349  0.81190441     1.65800
Fe1166     Fe  0.55217681  0.41093930  0.83458372     1.73200
Fe1167     Fe  0.55222620  0.34729315  0.78879539     1.54400
O1168       O  0.58268373  0.33910533  0.74632331    -0.79300
O1169       O  0.53118263  0.38351911  0.86968066    -0.77700
O1170       O  0.61911261  0.36926847  0.75673060    -0.81900
O1171       O  0.61688988  0.33522025  0.82796825    -0.76700
O1172       O  0.53146902  0.37474851  0.75352369    -0.78500
O1173       O  0.58245712  0.41905903  0.87729664    -0.81200
C1174       C  0.59750663  0.31593417  0.83358879     0.99500
C1175       C  0.60634982  0.35096792  0.73665831     1.07000
O1176       O  0.57366107  0.37910257  0.81176544    -1.10200
O1177       O  0.57170230  0.43985841  0.80040367    -0.72600
O1178       O  0.61704012  0.42292495  0.79585460    -0.76100
O1179       O  0.57153702  0.31835410  0.82315155    -0.76800
C1180       C  0.59771436  0.44224346  0.79013375     0.98400
O1181       O  0.61889803  0.38887635  0.86709419    -0.74800
O1182       O  0.51812995  0.40751253  0.79573718    -0.80000
C1183       C  0.51403282  0.36433465  0.85796672     1.01100
C1184       C  0.51429524  0.39395582  0.76509738     1.07000
O1185       O  0.51799387  0.35077789  0.82735629    -0.75600
C1186       C  0.60607663  0.40717586  0.88709827     1.05300
Fe1187     Fe  0.63707785  0.37904387  0.56190552     1.65800
Fe1188     Fe  0.70064175  0.34714656  0.58452135     1.73200
Fe1189     Fe  0.70059628  0.41084642  0.53885372     1.54400
O1190       O  0.67012000  0.41906137  0.99640208    -0.79300
O1191       O  0.72163998  0.37452610  0.61966583    -0.77700
O1192       O  0.63375459  0.38879651  0.00671327    -0.81900
O1193       O  0.63592208  0.42291616  0.57789403    -0.76700
O1194       O  0.72135478  0.38342992  0.00353411    -0.78500
O1195       O  0.67034223  0.33900267  0.62721379    -0.81200
C1196       C  0.65529567  0.44219758  0.58359020     0.99500
C1197       C  0.64648872  0.40714861  0.98668668     1.07000
O1198       O  0.67916777  0.37901185  0.56176425    -1.10200
O1199       O  0.68111559  0.31825726  0.55028972    -0.72600
O1200       O  0.63576523  0.33517329  0.54593070    -0.76100
O1201       O  0.68128915  0.43976033  0.57325945    -0.76800
C1202       C  0.65507898  0.31585809  0.54012962     0.98400
O1203       O  0.63397138  0.36929551  0.61711315    -0.74800
O1204       O  0.73469396  0.35061586  0.54568665    -0.80000
C1205       C  0.73879837  0.39371369  0.60798144     1.01100
C1206       C  0.73853463  0.36421595  0.51507932     1.07000
O1207       O  0.73483312  0.40731500  0.57740375    -0.75600
C1208       C  0.64676118  0.35094041  0.63706905     1.05300
Fe1209     Fe  0.62645513  0.11847939  0.68663085     1.65800
Fe1210     Fe  0.59459194  0.05485379  0.66402603     1.73200
Fe1211     Fe  0.65825697  0.05491707  0.70966762     1.54400
O1212       O  0.68717013  0.07430979  0.67536753    -0.79300
O1213       O  0.59811279  0.02072026  0.70273368    -0.77700
O1214       O  0.67027670  0.11966814  0.67052076    -0.81900
O1215       O  0.63628047  0.12181399  0.74179579    -0.76700
O1216       O  0.65479259  0.02074917  0.67098177    -0.78500
O1217       O  0.56575077  0.07432204  0.69836241    -0.81200
C1218       C  0.65450972  0.10899682  0.76190366     0.99500
C1219       C  0.68957109  0.10029506  0.66491720     1.07000
O1220       O  0.62644045  0.07635744  0.68677059    -1.10200
O1221       O  0.58634135  0.08520075  0.62143293    -0.72600
O1222       O  0.61662750  0.12160344  0.63144502    -0.76100
O1223       O  0.66637990  0.08533010  0.75222326    -0.76800
C1224       C  0.59823481  0.10880971  0.61155638     0.98400
O1225       O  0.58262642  0.11972752  0.70272722    -0.74800
O1226       O  0.62195475  0.03393827  0.62879642    -0.80000
C1227       C  0.61169258  0.01686382  0.73333556     1.01100
C1228       C  0.64121255  0.01682568  0.64038487     1.07000
O1229       O  0.63087315  0.03406068  0.74491498    -0.75600
C1230       C  0.56334397  0.10037179  0.70855379     1.05300
Fe1231     Fe  0.62598923  0.13963594  0.93664041     1.65800
Fe1232     Fe  0.65794343  0.20321718  0.91407763     1.73200
Fe1233     Fe  0.59427684  0.20324194  0.95971476     1.54400
O1234       O  0.56533195  0.18389142  0.92540597    -0.79300
O1235       O  0.65447531  0.23735038  0.95279343    -0.77700
O1236       O  0.58216844  0.13851393  0.92053125    -0.81900
O1237       O  0.61615627  0.13629665  0.99179994    -0.76700
O1238       O  0.59779621  0.23741062  0.92103779    -0.78500
O1239       O  0.68675157  0.18370600  0.94840816    -0.81200
C1240       C  0.59794950  0.14913500  0.51191940     0.99500
C1241       C  0.56289839  0.15791234  0.91493868     1.07000
O1242       O  0.62606401  0.18175778  0.93681301    -1.10200
O1243       O  0.66615780  0.17287143  0.87147509    -0.72600
O1244       O  0.63580800  0.13651801  0.88144906    -0.76100
O1245       O  0.58611651  0.17282683  0.50226023    -0.76800
C1246       C  0.65422500  0.14928935  0.86157440     0.98400
O1247       O  0.66981892  0.13831964  0.95273591    -0.74800
O1248       O  0.63061015  0.22416179  0.87885381    -0.80000
C1249       C  0.64090588  0.24123034  0.98339749     1.01100
C1250       C  0.61139020  0.24131195  0.89044647     1.07000
O1251       O  0.62168763  0.22407022  0.99497091    -0.76400
C1252       C  0.68912613  0.15764882  0.95857674     1.05300
Fe1253     Fe  0.88690240  0.12905387  0.81112451     1.65800
Fe1254     Fe  0.95046220  0.16100012  0.78848958     1.73200
Fe1255     Fe  0.95045134  0.09735342  0.83427734     1.54400
O1256       O  0.91998962  0.08913615  0.87673808    -0.79300
O1257       O  0.97149358  0.13360871  0.75339924    -0.77700
O1258       O  0.88353137  0.11924440  0.86629614    -0.81900
O1259       O  0.88581382  0.08519949  0.79506117    -0.76700
O1260       O  0.97117241  0.12483632  0.86955556    -0.78500
O1261       O  0.92018630  0.16909051  0.74576462    -0.81200
C1262       C  0.90521509  0.06593482  0.78946153     0.99500
C1263       C  0.89630766  0.10096804  0.88638449     1.07000
O1264       O  0.92899730  0.12913487  0.81129094    -1.10200
O1265       O  0.93089942  0.18988999  0.82266773    -0.72600
O1266       O  0.88557270  0.17290406  0.82717460    -0.76100
O1267       O  0.93117740  0.06838571  0.79991930    -0.76800
C1268       C  0.90488009  0.19224389  0.83291682     0.98400
O1269       O  0.88377502  0.13885279  0.75593230    -0.74800
O1270       O  0.98450418  0.15760869  0.82734571    -0.80000
C1271       C  0.98864778  0.11443389  0.76511576     1.01100
C1272       C  0.98834130  0.14405411  0.85798504     1.07000
O1273       O  0.98468831  0.10087381  0.79572581    -0.75600
C1274       C  0.89658307  0.15717652  0.73594398     1.05300
Fe1275     Fe  0.86558102  0.12904797  0.56112088     1.65800
Fe1276     Fe  0.80203304  0.09707593  0.53854967     1.73200
Fe1277     Fe  0.80204677  0.16077709  0.58421441     1.54400
O1278       O  0.83252764  0.16901731  0.62665471    -0.79300
O1279       O  0.78099895  0.12442781  0.50341047    -0.77700
O1280       O  0.86892003  0.13880424  0.61630972    -0.81900
O1281       O  0.86669607  0.17292099  0.54513139    -0.76700
O1282       O  0.78132282  0.13333426  0.61954040    -0.78500
O1283       O  0.83232860  0.08895870  0.99584613    -0.81200
C1284       C  0.84730613  0.19218291  0.53945580     0.99500
C1285       C  0.85617347  0.15713279  0.63635232     1.07000
O1286       O  0.82349107  0.12896811  0.56128841    -1.10200
O1287       O  0.82159397  0.06821489  0.57278102    -0.72600
O1288       O  0.86693486  0.08517902  0.57709711    -0.76100
O1289       O  0.82131975  0.18971713  0.54980666    -0.76800
C1290       C  0.84763772  0.06584442  0.58292024     0.98400
O1291       O  0.86867203  0.11930199  0.50591163    -0.74800
O1292       O  0.76798616  0.10051433  0.57739368    -0.80000
C1293       C  0.76383950  0.14360927  0.51509655     1.01100
C1294       C  0.76414494  0.11411363  0.60799988     1.07000
O1295       O  0.76780531  0.15721365  0.54567331    -0.75600
C1296       C  0.85589516  0.10092445  0.98597272     1.05300
C1297       C  0.88280409  0.09431226  0.92166301    -0.10900
C1298       C  0.86928740  0.09429081  0.95062024    -0.12500
C1299       C  0.88318558  0.16380493  0.70059255    -0.10900
C1300       C  0.86967055  0.16379007  0.67163402    -0.12500
C1301       C  0.71523518  0.15053417  0.97787778    -0.10900
C1302       C  0.73776193  0.14813435  0.99441815    -0.12500
C1303       C  0.51431452  0.14863517  0.87885644    -0.10900
C1304       C  0.53678741  0.15097529  0.89553155    -0.12500
C1305       C  0.73815819  0.10958191  0.62886010    -0.10900
C1306       C  0.71567691  0.10726240  0.64552024    -0.12500
C1307       C  0.51471332  0.10986651  0.74442697    -0.10900
C1308       C  0.53723099  0.10745229  0.72786936    -0.12500
C1309       C  0.59149202  0.12221590  0.57625033    -0.10900
C1310       C  0.59139464  0.13569833  0.54726542    -0.12500
C1311       C  0.66105020  0.12242555  0.79726002    -0.10900
C1312       C  0.66095325  0.13589151  0.82625798    -0.12500
C1313       C  0.64829234  0.46832987  0.60293557    -0.10900
C1314       C  0.64585621  0.49082629  0.61956366    -0.12500
C1315       C  0.64551149  0.26722730  0.50423619    -0.10900
C1316       C  0.64796421  0.28972865  0.52084784    -0.12500
C1317       C  0.60715491  0.49085540  0.75416528    -0.10900
C1318       C  0.60477569  0.46835963  0.77080176    -0.12500
C1319       C  0.63299276  0.41380175  0.95140480    -0.10900
C1320       C  0.61947628  0.41381051  0.92244744    -0.12500
C1321       C  0.61985147  0.34431807  0.70137819    -0.10900
C1322       C  0.63336742  0.34430257  0.67242064    -0.12500
C1323       C  0.60445984  0.28981622  0.85298444    -0.10900
C1324       C  0.60681977  0.26732466  0.86963608    -0.12500
C1325       C  0.76451947  0.35968659  0.99421438    -0.10900
C1326       C  0.78699621  0.35735001  0.97754897    -0.12500
C1327       C  0.96544410  0.35735834  0.89520414    -0.10900
C1328       C  0.98796629  0.35976051  0.87865258    -0.12500
C1329       C  0.89778848  0.21834930  0.85225117    -0.10900
C1330       C  0.89539558  0.24084013  0.86889437    -0.12500
C1331       C  0.85670222  0.24082811  0.50349452    -0.10900
C1332       C  0.85428157  0.21832559  0.52011393    -0.12500
C1333       C  0.76487821  0.39823929  0.62865623    -0.10900
C1334       C  0.78740906  0.40062169  0.64519248    -0.12500
C1335       C  0.98832323  0.39853011  0.74422259    -0.10900
C1336       C  0.96585498  0.40088202  0.72754091    -0.12500
C1337       C  0.91116384  0.37219259  0.54681240    -0.10900
C1338       C  0.91126219  0.38567497  0.57579735    -0.12500
C1339       C  0.84170605  0.38590234  0.79680634    -0.10900
C1340       C  0.84160755  0.37243614  0.82580398    -0.12500
C1341       C  0.89829181  0.03980611  0.77006827    -0.10900
C1342       C  0.89594547  0.01730966  0.75342363    -0.12500
C1343       C  0.85478061  0.03972592  0.60220522    -0.10900
C1344       C  0.85724760  0.01722986  0.61882474    -0.12500
Fe1345     Fe  0.87664654  0.88963035  0.18640443     1.65800
Fe1346     Fe  0.84477624  0.95323562  0.20899866     1.73200
Fe1347     Fe  0.90844065  0.95321288  0.16335747     1.54400
O1348       O  0.93735460  0.93383156  0.19767275    -0.79300
O1349       O  0.84827846  0.98736526  0.17027947    -0.77700
O1350       O  0.92046597  0.88846509  0.20251492    -0.81900
O1351       O  0.88647541  0.88629634  0.13124321    -0.76700
O1352       O  0.90495730  0.98738534  0.20203090    -0.78500
O1353       O  0.81593576  0.93375656  0.17467658    -0.81200
C1354       C  0.90470962  0.89911625  0.11113924     0.99500
C1355       C  0.93975660  0.90784656  0.20812620     1.07000
O1356       O  0.87662500  0.93175222  0.18624890    -1.10200
O1357       O  0.83653540  0.92289456  0.25160110    -0.72600
O1358       O  0.86682442  0.88650601  0.24159420    -0.76100
O1359       O  0.91657311  0.92279344  0.12081187    -0.76800
C1360       C  0.84843638  0.89929644  0.26148623     0.98400
O1361       O  0.83281549  0.88835872  0.17030972    -0.74800
O1362       O  0.87214052  0.97414841  0.24421965    -0.80000
C1363       C  0.86184911  0.99123752  0.13967283     1.01100
C1364       C  0.89136836  0.99129306  0.23262269     1.07000
O1365       O  0.88105776  0.97407125  0.12810088    -0.75600
C1366       C  0.81352954  0.90770620  0.16448977     1.05300
Fe1367     Fe  0.87622623  0.86847349  0.43641295     1.65800
Fe1368     Fe  0.90800621  0.80482452  0.45904710     1.73200
Fe1369     Fe  0.84434009  0.80493557  0.41340868     1.54400
O1370       O  0.81546019  0.82435951  0.44771874    -0.79300
O1371       O  0.90444870  0.77069421  0.42033656    -0.77700
O1372       O  0.83240510  0.86970750  0.45252054    -0.81900
O1373       O  0.86640769  0.87180038  0.38124535    -0.76700
O1374       O  0.84777109  0.77076360  0.45208999    -0.78500
O1375       O  0.93687894  0.82426045  0.42471667    -0.81200
C1376       C  0.84814712  0.85900389  0.36115640     0.99500
C1377       C  0.81309027  0.85035216  0.45814835     1.07000
O1378       O  0.87618711  0.82635177  0.43629116    -1.10200
O1379       O  0.91628455  0.83516819  0.00163849    -0.72600
O1380       O  0.88605446  0.87160276  0.49159806    -0.76100
O1381       O  0.83624277  0.83535427  0.37085411    -0.76800
C1382       C  0.90442020  0.85879124  0.01150196     0.98400
O1383       O  0.92005719  0.86967786  0.42032128    -0.74800
O1384       O  0.88061437  0.78394093  0.49427643    -0.80000
C1385       C  0.89086485  0.76684461  0.38973435     1.01100
C1386       C  0.86134891  0.76683310  0.48268514     1.07000
O1387       O  0.87169316  0.78404808  0.37815812    -0.75600
C1388       C  0.93931840  0.85030462  0.41451241     1.05300
Fe1389     Fe  0.61575599  0.87907293  0.31190393     1.65800
Fe1390     Fe  0.55217676  0.91093863  0.33458375     1.73200
Fe1391     Fe  0.55222600  0.84729300  0.28879414     1.54400
O1392       O  0.58268350  0.83910553  0.24632190    -0.79300
O1393       O  0.53118235  0.88351811  0.36967997    -0.77700
O1394       O  0.61911276  0.86926802  0.25673007    -0.81900
O1395       O  0.61688954  0.83521968  0.32796769    -0.76700
O1396       O  0.53146906  0.87474886  0.25352287    -0.78500
O1397       O  0.58245680  0.91905764  0.37729722    -0.81200
C1398       C  0.59750618  0.81593359  0.33358766     0.99500
C1399       C  0.60634974  0.85096802  0.23665725     1.07000
O1400       O  0.57366100  0.87910210  0.31176490    -1.10200
O1401       O  0.57170249  0.93985817  0.30040448    -0.72600
O1402       O  0.61704010  0.92292440  0.29585413    -0.76100
O1403       O  0.57153673  0.81835348  0.32314975    -0.76800
C1404       C  0.59771433  0.94224306  0.29013400     0.98400
O1405       O  0.61889815  0.88887573  0.36709381    -0.74800
O1406       O  0.51813005  0.90751247  0.29573693    -0.80000
C1407       C  0.51403240  0.86433388  0.35796564     1.01100
C1408       C  0.51429537  0.89395618  0.26509680     1.07000
O1409       O  0.51799357  0.85077736  0.32735504    -0.75600
C1410       C  0.60607643  0.90717472  0.38709840     1.05300
Fe1411     Fe  0.63707814  0.87904472  0.06190424     1.65800
Fe1412     Fe  0.70064199  0.84714753  0.08452051     1.73200
Fe1413     Fe  0.70059656  0.91084751  0.03885316     1.54400
O1414       O  0.67011967  0.91905986  0.49640245    -0.79300
O1415       O  0.72164019  0.87452707  0.11966509    -0.77700
O1416       O  0.63375403  0.88879543  0.50671450    -0.81900
O1417       O  0.63592227  0.92291690  0.07789293    -0.76700
O1418       O  0.72135444  0.88342853  0.50353490    -0.78500
O1419       O  0.67034246  0.83900365  0.12721292    -0.81200
C1420       C  0.65529578  0.94219831  0.08358956     0.99500
C1421       C  0.64648835  0.90714714  0.48668745     1.07000
O1422       O  0.67916803  0.87901281  0.06176341    -1.10200
O1423       O  0.68111592  0.81825812  0.05028889    -0.72600
O1424       O  0.63576563  0.83517413  0.04592928    -0.76100
O1425       O  0.68128939  0.93976113  0.07325920    -0.76800
C1426       C  0.65507938  0.81585880  0.04012868     0.98400
O1427       O  0.63397139  0.86929614  0.11711181    -0.74800
O1428       O  0.73469409  0.85061685  0.04568571    -0.80000
C1429       C  0.73879866  0.89371464  0.10798070     1.01100
C1430       C  0.73853474  0.86421701  0.01507840     1.07000
O1431       O  0.73483347  0.90731594  0.07740306    -0.75600
C1432       C  0.64676116  0.85094121  0.13706786     1.05300
Fe1433     Fe  0.62645486  0.61847966  0.18663092     1.65800
Fe1434     Fe  0.59459144  0.55485413  0.16402637     1.73200
Fe1435     Fe  0.65825668  0.55491726  0.20966758     1.54400
O1436       O  0.68716986  0.57431012  0.17536756    -0.79300
O1437       O  0.59811236  0.52072041  0.20273397    -0.77700
O1438       O  0.67027634  0.61966840  0.17052060    -0.81900
O1439       O  0.63628034  0.62181429  0.24179592    -0.76700
O1440       O  0.65479226  0.52074963  0.17098153    -0.78500
O1441       O  0.56575047  0.57432248  0.19836299    -0.81200
C1442       C  0.65450949  0.60899690  0.26190380     0.99500
C1443       C  0.68957084  0.60029533  0.16491712     1.07000
O1444       O  0.62644011  0.57635769  0.18677071    -1.10200
O1445       O  0.58634084  0.58520112  0.12143324    -0.72600
O1446       O  0.61662717  0.62160369  0.13144513    -0.76100
O1447       O  0.66637952  0.58533016  0.25222349    -0.76800
C1448       C  0.59823449  0.60880996  0.11155650     0.98400
O1449       O  0.58262622  0.61972791  0.20272749    -0.74800
O1450       O  0.62195403  0.53393855  0.12879660    -0.80000
C1451       C  0.61169230  0.51686373  0.23333573     1.01100
C1452       C  0.64121197  0.51682610  0.14038473     1.07000
O1453       O  0.63087304  0.53406060  0.24491498    -0.75600
C1454       C  0.56334377  0.60037234  0.20855428     1.05300
Fe1455     Fe  0.62598861  0.63963576  0.43664048     1.65800
Fe1456     Fe  0.65794292  0.70321691  0.41407801     1.73200
Fe1457     Fe  0.59427621  0.70324166  0.45971479     1.54400
O1458       O  0.56533143  0.68389118  0.42540602    -0.79300
O1459       O  0.65447463  0.73735011  0.45279362    -0.77700
O1460       O  0.58216771  0.63851361  0.42053204    -0.81900
O1461       O  0.61615620  0.63629668  0.49180019    -0.76700
O1462       O  0.59779567  0.73741029  0.42103768    -0.78500
O1463       O  0.68675093  0.68370581  0.44840880    -0.81200
C1464       C  0.59794975  0.64913507  0.01191931     0.99500
C1465       C  0.56289773  0.65791192  0.41493926     1.07000
O1466       O  0.62606340  0.68175755  0.43681316    -1.10200
O1467       O  0.66615745  0.67287099  0.37147560    -0.72600
O1468       O  0.63580694  0.63651802  0.38144896    -0.76100
O1469       O  0.58611708  0.67282709  0.00226027    -0.76800
C1470       C  0.65422431  0.64928918  0.36157468     0.98400
O1471       O  0.66981846  0.63831932  0.45273539    -0.74800
O1472       O  0.63060979  0.72416146  0.37885396    -0.80000
C1473       C  0.64090526  0.74123002  0.48339784     1.01100
C1474       C  0.61138967  0.74131155  0.39044641     1.07000
O1475       O  0.62168694  0.72406986  0.49497104    -0.76400
C1476       C  0.68912562  0.65764856  0.45857675     1.05300
Fe1477     Fe  0.88690190  0.62905360  0.31112481     1.65800
Fe1478     Fe  0.95046174  0.66100005  0.28849046     1.73200
Fe1479     Fe  0.95045081  0.59735306  0.33427741     1.54400
O1480       O  0.91998889  0.58913522  0.37673763    -0.79300
O1481       O  0.97149331  0.63360893  0.25339990    -0.77700
O1482       O  0.88353087  0.61924382  0.36629629    -0.81900
O1483       O  0.88581347  0.58519940  0.29506098    -0.76700
O1484       O  0.97117148  0.62483575  0.36955618    -0.78500
O1485       O  0.92018596  0.66909067  0.24576552    -0.81200
C1486       C  0.90521488  0.56593482  0.28946102     0.99500
C1487       C  0.89630692  0.60096712  0.38638427     1.07000
O1488       O  0.92899680  0.62913463  0.31129134    -1.10200
O1489       O  0.93089883  0.68988964  0.32266881    -0.72600
O1490       O  0.88557204  0.67290375  0.32717517    -0.76100
O1491       O  0.93117715  0.56838572  0.29991874    -0.76800
C1492       C  0.90487946  0.69224364  0.33291762     0.98400
O1493       O  0.88377462  0.63885286  0.25593270    -0.74800
O1494       O  0.98450344  0.65760839  0.32734678    -0.80000
C1495       C  0.98864748  0.61443416  0.26511635     1.01100
C1496       C  0.98834044  0.64405363  0.35798606     1.07000
O1497       O  0.98468806  0.60087397  0.29572633    -0.75600
C1498       C  0.89658273  0.65717672  0.23594471     1.05300
Fe1499     Fe  0.86558125  0.62904869  0.06112182     1.65800
Fe1500     Fe  0.80203341  0.59707674  0.03854967     1.73200
Fe1501     Fe  0.80204682  0.66077765  0.08421505     1.54400
O1502       O  0.83252751  0.66901779  0.12665554    -0.79300
O1503       O  0.78099958  0.62442893  0.00341053    -0.77700
O1504       O  0.86891991  0.63880471  0.11631073    -0.81900
O1505       O  0.86669638  0.67292177  0.04513271    -0.76700
O1506       O  0.78132274  0.63333464  0.11954069    -0.78500
O1507       O  0.83232804  0.58895756  0.49584611    -0.81200
C1508       C  0.84730639  0.69218355  0.03945696     0.99500
C1509       C  0.85617318  0.65713333  0.13635323     1.07000
O1510       O  0.82349129  0.62896877  0.06128899    -1.10200
O1511       O  0.82159418  0.56821548  0.07278089    -0.72600
O1512       O  0.86693505  0.58517963  0.07709755    -0.76100
O1513       O  0.82132003  0.68971780  0.04980759    -0.76800
C1514       C  0.84763793  0.56584502  0.08292019     0.98400
O1515       O  0.86867267  0.61930298  0.00591247    -0.74800
O1516       O  0.76798627  0.60051493  0.07739351    -0.80000
C1517       C  0.76383992  0.64361022  0.01509666     1.01100
C1518       C  0.76414482  0.61411403  0.10799973     1.07000
O1519       O  0.76780550  0.65721435  0.04567372    -0.75600
C1520       C  0.85589457  0.60092331  0.48597224     1.05300
C1521       C  0.88280334  0.59431101  0.42166260    -0.10900
C1522       C  0.86928661  0.59428938  0.45061987    -0.12500
C1523       C  0.88318533  0.66380542  0.20059334    -0.10900
C1524       C  0.86967025  0.66379060  0.17163497    -0.12500
C1525       C  0.71523472  0.65053375  0.47787767    -0.10900
C1526       C  0.73776149  0.64813362  0.49441797    -0.12500
C1527       C  0.51431355  0.64863460  0.37885765    -0.10900
C1528       C  0.53678656  0.65097480  0.39553258    -0.12500
C1529       C  0.73815799  0.60958219  0.12885978    -0.10900
C1530       C  0.71567665  0.60726261  0.14551997    -0.12500
C1531       C  0.51471310  0.60986698  0.24442762    -0.10900
C1532       C  0.53723080  0.60745287  0.22787002    -0.12500
C1533       C  0.59149193  0.62221597  0.07625032    -0.10900
C1534       C  0.59139479  0.63569841  0.04726531    -0.12500
C1535       C  0.66104980  0.62242551  0.29726034    -0.10900
C1536       C  0.66095261  0.63589132  0.32625820    -0.12500
C1537       C  0.64829221  0.96833052  0.10293493    -0.10900
C1538       C  0.64585598  0.99082686  0.11956322    -0.12500
C1539       C  0.64551199  0.76722772  0.00423556    -0.10900
C1540       C  0.64796474  0.78972930  0.02084691    -0.12500
C1541       C  0.60715472  0.99085507  0.25416535    -0.10900
C1542       C  0.60477565  0.96835945  0.27080188    -0.12500
C1543       C  0.63299230  0.91379995  0.45140534    -0.10900
C1544       C  0.61947609  0.91380892  0.42244795    -0.12500
C1545       C  0.61985138  0.84431858  0.20137698    -0.10900
C1546       C  0.63336735  0.84430332  0.17241941    -0.12500
C1547       C  0.60445916  0.78981559  0.35298360    -0.10900
C1548       C  0.60681903  0.76732415  0.36963549    -0.12500
C1549       C  0.76451945  0.85968597  0.49421551    -0.10900
C1550       C  0.78699623  0.85734977  0.47754986    -0.12500
C1551       C  0.96544363  0.85735762  0.39520334    -0.10900
C1552       C  0.98796584  0.85975957  0.37865141    -0.12500
C1553       C  0.89778779  0.71834890  0.35225181    -0.10900
C1554       C  0.89539495  0.74084002  0.36889493    -0.12500
C1555       C  0.85670269  0.74082849  0.00349529    -0.10900
C1556       C  0.85428195  0.71832631  0.02011492    -0.12500
C1557       C  0.76487859  0.89823987  0.12865541    -0.10900
C1558       C  0.78740943  0.90062204  0.14519170    -0.12500
C1559       C  0.98832347  0.89853082  0.24422206    -0.10900
C1560       C  0.96585526  0.90088277  0.22754021    -0.12500
C1561       C  0.91116403  0.87219286  0.04681170    -0.10900
C1562       C  0.91126256  0.88567528  0.07579680    -0.12500
C1563       C  0.84170659  0.88590268  0.29680579    -0.10900
C1564       C  0.84160779  0.87243651  0.32580387    -0.12500
C1565       C  0.89829166  0.53980644  0.27006759    -0.10900
C1566       C  0.89594540  0.51731000  0.25342267    -0.12500
C1567       C  0.85478074  0.53972634  0.10220493    -0.10900
C1568       C  0.85724765  0.51723017  0.11882401    -0.12500
Fe1569     Fe  0.87664614  0.88963002  0.68640508     1.65800
Fe1570     Fe  0.84477595  0.95323540  0.70899926     1.73200
Fe1571     Fe  0.90844048  0.95321249  0.66335828     1.54400
O1572       O  0.93735430  0.93383094  0.69767357    -0.79300
O1573       O  0.84827822  0.98736504  0.67028007    -0.77700
O1574       O  0.92046556  0.88846452  0.70251554    -0.81900
O1575       O  0.88647508  0.88629600  0.63124389    -0.76700
O1576       O  0.90495722  0.98738487  0.70203182    -0.78500
O1577       O  0.81593546  0.93375632  0.67467708    -0.81200
C1578       C  0.90470927  0.89911592  0.61114000     0.99500
C1579       C  0.93975620  0.90784590  0.70812696     1.07000
O1580       O  0.87662472  0.93175193  0.68624959    -1.10200
O1581       O  0.83653508  0.92289429  0.75160152    -0.72600
O1582       O  0.86682403  0.88650571  0.74159483    -0.76100
O1583       O  0.91657280  0.92279308  0.62081257    -0.76800
C1584       C  0.84843603  0.89929629  0.76148660     0.98400
O1585       O  0.83281512  0.88835845  0.67031042    -0.74800
O1586       O  0.87214015  0.97414819  0.74422038    -0.80000
C1587       C  0.86184898  0.99123740  0.63967349     1.01100
C1588       C  0.89136820  0.99129270  0.73262353     1.07000
O1589       O  0.88105765  0.97407099  0.62810160    -0.75600
C1590       C  0.81352917  0.90770600  0.66449040     1.05300
Fe1591     Fe  0.87622638  0.86847346  0.93641268     1.65800
Fe1592     Fe  0.90800667  0.80482472  0.95904673     1.73200
Fe1593     Fe  0.84434037  0.80493541  0.91340898     1.54400
O1594       O  0.81546061  0.82435932  0.94771924    -0.79300
O1595       O  0.90444913  0.77069431  0.92033625    -0.77700
O1596       O  0.83240514  0.86970749  0.95251955    -0.81900
O1597       O  0.86640818  0.87179993  0.88124496    -0.76700
O1598       O  0.84777168  0.77076351  0.95209035    -0.78500
O1599       O  0.93687917  0.82426069  0.92471605    -0.81200
C1600       C  0.84814713  0.85900342  0.86115663     0.99500
C1601       C  0.81309046  0.85035215  0.95814794     1.07000
O1602       O  0.87618745  0.82635177  0.93629095    -1.10200
O1603       O  0.91628404  0.83516772  0.50163914    -0.72600
O1604       O  0.88605421  0.87160269  0.99159786    -0.76100
O1605       O  0.83624266  0.83535416  0.87085456    -0.76800
C1606       C  0.90442002  0.85879093  0.51150237     0.98400
O1607       O  0.92005746  0.86967815  0.92032165    -0.74800
O1608       O  0.88061510  0.78394113  0.99427643    -0.80000
C1609       C  0.89086514  0.76684478  0.88973403     1.01100
C1610       C  0.86134961  0.76683329  0.98268546     1.07000
O1611       O  0.87169327  0.78404798  0.87815809    -0.75600
C1612       C  0.93931861  0.85030508  0.91451249     1.05300
Fe1613     Fe  0.61575610  0.87907343  0.81190440     1.65800
Fe1614     Fe  0.55217687  0.91093924  0.83458364     1.73200
Fe1615     Fe  0.55222620  0.84729309  0.78879540     1.54400
O1616       O  0.58268374  0.83910526  0.74632331    -0.79300
O1617       O  0.53118266  0.88351909  0.86968060    -0.77700
O1618       O  0.61911264  0.86926841  0.75673062    -0.81900
O1619       O  0.61688993  0.83522017  0.82796823    -0.76700
O1620       O  0.53146899  0.87474842  0.75352369    -0.78500
O1621       O  0.58245710  0.91905896  0.87729663    -0.81200
C1622       C  0.59750665  0.81593414  0.83358883     0.99500
C1623       C  0.60634984  0.85096786  0.73665831     1.07000
O1624       O  0.57366114  0.87910248  0.81176547    -1.10200
O1625       O  0.57170232  0.93985837  0.80040362    -0.72600
O1626       O  0.61704012  0.92292492  0.79585459    -0.76100
O1627       O  0.57153701  0.81835406  0.82315154    -0.76800
C1628       C  0.59771432  0.94224330  0.79013375     0.98400
O1629       O  0.61889802  0.88887631  0.86709423    -0.74800
O1630       O  0.51812995  0.90751242  0.79573718    -0.80000
C1631       C  0.51403278  0.86433458  0.85796669     1.01100
C1632       C  0.51429518  0.89395576  0.76509737     1.07000
O1633       O  0.51799387  0.85077781  0.82735631    -0.75600
C1634       C  0.60607659  0.90717583  0.88709826     1.05300
Fe1635     Fe  0.63707788  0.87904384  0.56190555     1.65800
Fe1636     Fe  0.70064174  0.84714648  0.58452131     1.73200
Fe1637     Fe  0.70059629  0.91084635  0.53885377     1.54400
O1638       O  0.67011997  0.91906132  0.99640207    -0.79300
O1639       O  0.72164004  0.87452600  0.61966579    -0.77700
O1640       O  0.63375458  0.88879645  0.00671330    -0.81900
O1641       O  0.63592212  0.92291612  0.57789402    -0.76700
O1642       O  0.72135475  0.88342984  0.00353411    -0.78500
O1643       O  0.67034223  0.83900257  0.62721372    -0.81200
C1644       C  0.65529571  0.94219759  0.58359011     0.99500
C1645       C  0.64648871  0.90714846  0.98668672     1.07000
O1646       O  0.67916777  0.87901177  0.56176427    -1.10200
O1647       O  0.68111559  0.81825722  0.55028963    -0.72600
O1648       O  0.63576524  0.83517330  0.54593081    -0.76100
O1649       O  0.68128917  0.93976033  0.57325942    -0.76800
C1650       C  0.65507892  0.81585795  0.54012962     0.98400
O1651       O  0.63397141  0.86929548  0.61711319    -0.74800
O1652       O  0.73469394  0.85061583  0.54568666    -0.80000
C1653       C  0.73879836  0.89371368  0.60798149     1.01100
C1654       C  0.73853460  0.86421589  0.51507930     1.07000
O1655       O  0.73483314  0.90731503  0.57740383    -0.75600
C1656       C  0.64676114  0.85094038  0.63706903     1.05300
Fe1657     Fe  0.62645510  0.61847942  0.68663087     1.65800
Fe1658     Fe  0.59459194  0.55485385  0.66402608     1.73200
Fe1659     Fe  0.65825701  0.55491708  0.70966760     1.54400
O1660       O  0.68717013  0.57430982  0.67536746    -0.79300
O1661       O  0.59811271  0.52072035  0.70273371    -0.77700
O1662       O  0.67027666  0.61966819  0.67052083    -0.81900
O1663       O  0.63628042  0.62181401  0.74179584    -0.76700
O1664       O  0.65479254  0.52074923  0.67098175    -0.78500
O1665       O  0.56575071  0.57432214  0.69836240    -0.81200
C1666       C  0.65450967  0.60899685  0.76190366     0.99500
C1667       C  0.68957112  0.60029504  0.66491712     1.07000
O1668       O  0.62644049  0.57635746  0.68677061    -1.10200
O1669       O  0.58634127  0.58520085  0.62143299    -0.72600
O1670       O  0.61662747  0.62160350  0.63144504    -0.76100
O1671       O  0.66637990  0.58533012  0.75222323    -0.76800
C1672       C  0.59823475  0.60880980  0.61155638     0.98400
O1673       O  0.58262636  0.61972761  0.70272726    -0.74800
O1674       O  0.62195470  0.53393828  0.62879644    -0.80000
C1675       C  0.61169254  0.51686377  0.73333559     1.01100
C1676       C  0.64121246  0.51682572  0.64038493     1.07000
O1677       O  0.63087319  0.53406074  0.74491491    -0.75600
C1678       C  0.56334390  0.60037197  0.70855385     1.05300
Fe1679     Fe  0.62598924  0.63963600  0.93664041     1.65800
Fe1680     Fe  0.65794344  0.70321720  0.91407761     1.73200
Fe1681     Fe  0.59427684  0.70324193  0.95971479     1.54400
O1682       O  0.56533198  0.68389141  0.92540605    -0.79300
O1683       O  0.65447531  0.73735035  0.95279340    -0.77700
O1684       O  0.58216845  0.63851392  0.92053120    -0.81900
O1685       O  0.61615626  0.63629667  0.99179995    -0.76700
O1686       O  0.59779618  0.73741056  0.92103776    -0.78500
O1687       O  0.68675160  0.68370604  0.94840818    -0.81200
C1688       C  0.59794943  0.64913491  0.51191937     0.99500
C1689       C  0.56289834  0.65791229  0.91493872     1.07000
O1690       O  0.62606400  0.68175783  0.93681298    -1.10200
O1691       O  0.66615783  0.67287142  0.87147505    -0.72600
O1692       O  0.63580800  0.63651803  0.88144910    -0.76100
O1693       O  0.58611653  0.67282680  0.50226018    -0.76800
C1694       C  0.65422500  0.64928931  0.86157442     0.98400
O1695       O  0.66981894  0.63831967  0.95273598    -0.74800
O1696       O  0.63061014  0.72416176  0.87885380    -0.80000
C1697       C  0.64090587  0.74123029  0.98339749     1.01100
C1698       C  0.61139018  0.74131193  0.89044650     1.07000
O1699       O  0.62168766  0.72407016  0.99497092    -0.76400
C1700       C  0.68912623  0.65764887  0.95857677     1.05300
Fe1701     Fe  0.88690235  0.62905387  0.81112457     1.65800
Fe1702     Fe  0.95046224  0.66100013  0.78848955     1.73200
Fe1703     Fe  0.95045136  0.59735342  0.83427734     1.54400
O1704       O  0.91998965  0.58913615  0.87673807    -0.79300
O1705       O  0.97149362  0.63360871  0.75339921    -0.77700
O1706       O  0.88353138  0.61924439  0.86629621    -0.81900
O1707       O  0.88581383  0.58519959  0.79506121    -0.76700
O1708       O  0.97117239  0.62483637  0.86955558    -0.78500
O1709       O  0.92018635  0.66909045  0.74576456    -0.81200
C1710       C  0.90521519  0.56593482  0.78946154     0.99500
C1711       C  0.89630767  0.60096799  0.88638449     1.07000
O1712       O  0.92899728  0.62913487  0.81129093    -1.10200
O1713       O  0.93089942  0.68988999  0.82266772    -0.72600
O1714       O  0.88557268  0.67290407  0.82717462    -0.76100
O1715       O  0.93117741  0.56838576  0.79991930    -0.76800
C1716       C  0.90488005  0.69224388  0.83291683     0.98400
O1717       O  0.88377497  0.63885285  0.75593237    -0.74800
O1718       O  0.98450421  0.65760871  0.82734571    -0.80000
C1719       C  0.98864782  0.61443388  0.76511574     1.01100
C1720       C  0.98834131  0.64405415  0.85798505     1.07000
O1721       O  0.98468836  0.60087384  0.79572584    -0.75600
C1722       C  0.89658309  0.65717644  0.73594395     1.05300
Fe1723     Fe  0.86558104  0.62904799  0.56112087     1.65800
Fe1724     Fe  0.80203307  0.59707597  0.53854966     1.73200
Fe1725     Fe  0.80204674  0.66077709  0.58421449     1.54400
O1726       O  0.83252764  0.66901729  0.62665474    -0.79300
O1727       O  0.78099901  0.62442786  0.50341040    -0.77700
O1728       O  0.86892003  0.63880420  0.61630974    -0.81900
O1729       O  0.86669607  0.67292099  0.54513147    -0.76700
O1730       O  0.78132289  0.63333419  0.61954043    -0.78500
O1731       O  0.83232863  0.58895869  0.99584619    -0.81200
C1732       C  0.84730612  0.69218285  0.53945585     0.99500
C1733       C  0.85617341  0.65713283  0.63635235     1.07000
O1734       O  0.82349109  0.62896817  0.56128840    -1.10200
O1735       O  0.82159398  0.56821492  0.57278105    -0.72600
O1736       O  0.86693485  0.58517907  0.57709702    -0.76100
O1737       O  0.82131975  0.68971707  0.54980668    -0.76800
C1738       C  0.84763772  0.56584448  0.58292023     0.98400
O1739       O  0.86867203  0.61930208  0.50591157    -0.74800
O1740       O  0.76798614  0.60051439  0.57739359    -0.80000
C1741       C  0.76383953  0.64360932  0.51509653     1.01100
C1742       C  0.76414489  0.61411362  0.60799983     1.07000
O1743       O  0.76780527  0.65721361  0.54567333    -0.75600
C1744       C  0.85589515  0.60092454  0.98597269     1.05300
C1745       C  0.88280411  0.59431216  0.92166304    -0.10900
C1746       C  0.86928743  0.59429078  0.95062027    -0.12500
C1747       C  0.88318560  0.66380491  0.70059253    -0.10900
C1748       C  0.86967052  0.66379009  0.67163404    -0.12500
C1749       C  0.71523517  0.65053421  0.97787781    -0.10900
C1750       C  0.73776199  0.64813435  0.99441822    -0.12500
C1751       C  0.51431443  0.64863519  0.87885643    -0.10900
C1752       C  0.53678746  0.65097535  0.89553155    -0.12500
C1753       C  0.73815823  0.60958195  0.62886005    -0.10900
C1754       C  0.71567683  0.60726240  0.64552026    -0.12500
C1755       C  0.51471326  0.60986660  0.74442697    -0.10900
C1756       C  0.53723099  0.60745238  0.72786936    -0.12500
C1757       C  0.59149206  0.62221594  0.57625038    -0.10900
C1758       C  0.59139456  0.63569841  0.54726541    -0.12500
C1759       C  0.66105022  0.62242557  0.79725999    -0.10900
C1760       C  0.66095318  0.63589146  0.82625797    -0.12500
C1761       C  0.64829233  0.96832982  0.60293555    -0.10900
C1762       C  0.64585624  0.99082626  0.61956366    -0.12500
C1763       C  0.64551153  0.76722717  0.50423607    -0.10900
C1764       C  0.64796413  0.78972872  0.52084785    -0.12500
C1765       C  0.60715489  0.99085525  0.75416538    -0.10900
C1766       C  0.60477567  0.96835968  0.77080177    -0.12500
C1767       C  0.63299268  0.91380169  0.95140483    -0.10900
C1768       C  0.61947633  0.91381060  0.92244746    -0.12500
C1769       C  0.61985146  0.84431810  0.70137820    -0.10900
C1770       C  0.63336740  0.84430254  0.67242060    -0.12500
C1771       C  0.60445979  0.78981619  0.85298441    -0.10900
C1772       C  0.60681977  0.76732463  0.86963605    -0.12500
C1773       C  0.76451947  0.85968669  0.99421442    -0.10900
C1774       C  0.78699619  0.85735008  0.97754896    -0.12500
C1775       C  0.96544409  0.85735841  0.89520413    -0.10900
C1776       C  0.98796630  0.85976049  0.87865256    -0.12500
C1777       C  0.89778848  0.71834930  0.85225118    -0.10900
C1778       C  0.89539551  0.74084021  0.86889431    -0.12500
C1779       C  0.85670219  0.74082809  0.50349445    -0.10900
C1780       C  0.85428156  0.71832564  0.52011393    -0.12500
C1781       C  0.76487821  0.89823922  0.62865625    -0.10900
C1782       C  0.78740905  0.90062170  0.64519245    -0.12500
C1783       C  0.98832320  0.89853012  0.74422266    -0.10900
C1784       C  0.96585494  0.90088204  0.72754097    -0.12500
C1785       C  0.91116381  0.87219263  0.54681235    -0.10900
C1786       C  0.91126219  0.88567492  0.57579729    -0.12500
C1787       C  0.84170602  0.88590234  0.79680636    -0.10900
C1788       C  0.84160749  0.87243618  0.82580396    -0.12500
C1789       C  0.89829186  0.53980624  0.77006835    -0.10900
C1790       C  0.89594537  0.51730964  0.75342364    -0.12500
C1791       C  0.85478063  0.53972596  0.60220522    -0.10900
C1792       C  0.85724755  0.51722984  0.61882474    -0.12500
loop_ 
_geom_bond_atom_site_label_1 
_geom_bond_atom_site_label_2 
_geom_bond_distance 
_geom_bond_site_symmetry_2 
_ccdc_geom_bond_type 
Fe1          O17   2.110       .  S
Fe1           O7   2.033       .  S
Fe1          O14   2.033       .  S
Fe1           O6   2.109       .  S
Fe1          O12   1.948       .  S
Fe2           O5   2.107       .  S
Fe2           O9   2.026       .  S
Fe2          O13   2.108       .  S
Fe2          O18   2.032       .  S
Fe2          O12   1.956       .  S
Fe3          O21   2.033       .  S
Fe3           O8   2.108       .  S
Fe3          O15   2.108       .  S
Fe3           O4   2.026       .  S
Fe3          O12   1.956       .  S
O4           C11   1.264       .  A
O5           C19   1.276       .  A
O6           C11   1.281       .  A
O7           C10   1.258       .  A
O8           C20   1.276       .  A
O9           C22   1.264       .  A
C10          O15   1.273       .  A
C10         C218   1.442       .  S
C11         C216   1.431       .  S
O13          C16   1.273       .  A
O14          C16   1.258       .  A
C16         C219   1.443       .  S
O17          C22   1.281       .  A
O18          C20   1.262       .  A
C19          O21   1.262       .  A
C19         C672   1.431       .  S
C20         C670   1.431       .  S
C22         C214   1.431       .  S
Fe23         O39   2.110       .  S
Fe23         O29   2.033       .  S
Fe23         O36   2.033       .  S
Fe23         O28   2.110       .  S
Fe23         O34   1.948       .  S
Fe24         O27   2.107       .  S
Fe24         O31   2.026       .  S
Fe24         O40   2.033       .  S
Fe24        O259   2.108       .  S
Fe24         O34   1.956       .  S
Fe25         O43   2.032       .  S
Fe25         O30   2.108       .  S
Fe25         O37   2.108       .  S
Fe25         O26   2.026       .  S
Fe25         O34   1.956       .  S
O26          C33   1.264       .  A
O27          C41   1.276       .  A
O28          C33   1.281       .  A
O29          C32   1.258       .  A
O30          C42   1.276       .  A
O31          C44   1.264       .  A
C32          O37   1.273       .  A
C32         C220   1.443       .  S
C33         C206   1.431       .  S
O35        Fe248   2.108   1_554  S
O35          C38   1.273       .  A
O36         C262   1.258       .  A
C38         O260   1.258   1_554  A
C38         C217   1.443       .  S
O39          C44   1.281       .  A
O40          C42   1.262       .  A
C41          O43   1.262       .  A
C41         C210   1.431       .  S
C42         C435   1.431       .  S
C44         C207   1.431       .  S
Fe45         O61   2.033       .  S
Fe45         O51   2.109       .  S
Fe45         O58   2.109       .  S
Fe45         O50   2.033       .  S
Fe45         O56   1.948       .  S
Fe46         O49   2.033       .  S
Fe46         O53   2.108       .  S
Fe46         O57   2.026       .  S
Fe46         O62   2.108       .  S
Fe46         O56   1.956       .  S
Fe47         O65   2.108       .  S
Fe47         O52   2.033       .  S
Fe47         O59   2.026       .  S
Fe47         O48   2.108       .  S
Fe47         O56   1.956       .  S
O48          C55   1.273       .  A
O49          C63   1.262       .  A
O50          C55   1.258       .  A
O51          C54   1.281       .  A
O52          C64   1.262       .  A
O53          C66   1.273       .  A
C54          O59   1.264       .  A
C54         C203   1.430       .  S
C55         C201   1.443       .  S
O57          C60   1.264       .  A
O58          C60   1.281       .  A
C60         C198   1.430       .  S
O61          C66   1.258       .  A
O62          C64   1.276       .  A
C63          O65   1.276       .  A
C63        C1104   1.432   1_455  S
C64        C1111   1.431   1_455  S
C66         C200   1.443       .  S
Fe67         O83   2.033       .  S
Fe67         O73   2.109       .  S
Fe67         O80   2.109       .  S
Fe67        O296   2.033       .  S
Fe67         O78   1.948       .  S
Fe68         O71   2.033       .  S
Fe68         O75   2.109       .  S
Fe68         O79   2.026       .  S
Fe68         O84   2.108       .  S
Fe68         O78   1.956       .  S
Fe69         O87   2.108       .  S
Fe69         O81   2.026       .  S
Fe69        O298   2.033       .  S
Fe69        O294   2.109   1_554  S
Fe69         O78   1.956       .  S
O70        Fe293   2.109       .  S
O70          C77   1.273       .  A
O71          C85   1.262       .  A
O72        Fe291   2.033       .  S
O72          C77   1.258       .  A
O73          C76   1.281       .  A
O74        Fe293   2.033       .  S
O74         C310   1.262       .  A
O75          C88   1.273       .  A
C76          O81   1.264       .  A
C76         C193   1.430       .  S
C77         C199   1.443       .  S
O79          C82   1.264       .  A
O80          C82   1.281       .  A
C82         C196   1.430       .  S
O83          C88   1.258       .  A
O84          C86   1.276       .  A
C85          O87   1.276       .  A
C85         C213   1.432       .  S
C86         O298   1.262       .  A
C86         C429   1.431   1_554  S
C88         C202   1.443       .  S
Fe89        O105   2.110       .  S
Fe89         O95   2.033       .  S
Fe89        O102   2.033       .  S
Fe89         O94   2.110       .  S
Fe89        O100   1.948       .  S
Fe90         O93   2.107       .  S
Fe90         O97   2.026       .  S
Fe90        O101   2.108       .  S
Fe90        O106   2.033       .  S
Fe90        O100   1.956       .  S
Fe91        O109   2.032       .  S
Fe91         O96   2.108       .  S
Fe91        O103   2.108       .  S
Fe91         O92   2.026       .  S
Fe91        O100   1.956       .  S
O92          C99   1.264       .  A
O93         C107   1.276       .  A
O94          C99   1.281       .  A
O95          C98   1.258       .  A
O96         C108   1.276       .  A
O97         C110   1.264       .  A
C98         O103   1.273       .  A
C98         C191   1.443       .  S
C99         C186   1.431       .  S
O101        C104   1.273       .  A
O102        C104   1.258       .  A
C104        C189   1.443       .  S
O105        C110   1.281       .  A
O106        C108   1.262       .  A
C107        O109   1.262       .  A
C107        C645   1.431   1_545  S
C108        C642   1.431   1_545  S
C110        C188   1.431       .  S
Fe111       O127   2.110       .  S
Fe111       O117   2.033       .  S
Fe111       O124   2.033       .  S
Fe111       O116   2.109       .  S
Fe111       O122   1.948       .  S
Fe112       O115   2.107       .  S
Fe112       O119   2.026       .  S
Fe112       O123   2.108       .  S
Fe112       O128   2.032       .  S
Fe112       O122   1.956       .  S
Fe113       O131   2.033       .  S
Fe113       O118   2.108       .  S
Fe113       O114   2.026       .  S
Fe113       O349   2.108       .  S
Fe113       O122   1.956       .  S
O114        C121   1.264       .  A
O115        C129   1.276       .  A
O116        C121   1.281       .  A
O117        C344   1.258       .  A
O118        C130   1.276       .  A
O119        C132   1.264       .  A
C120        O125   1.273       .  A
C120        O341   1.258   1_554  A
C120        C190   1.442       .  S
C121        C184   1.431       .  S
O123        C126   1.273       .  A
O124        C126   1.258       .  A
O125       Fe337   2.108   1_554  S
C126        C192   1.443       .  S
O127        C132   1.281       .  A
O128        C130   1.262       .  A
C129        O131   1.262       .  A
C129        C419   1.431       .  S
C130        C204   1.431       .  S
C132        C181   1.431       .  S
Fe133       O149   2.033       .  S
Fe133       O139   2.109       .  S
Fe133       O146   2.109       .  S
Fe133       O138   2.033       .  S
Fe133       O144   1.948       .  S
Fe134       O137   2.033       .  S
Fe134       O141   2.108       .  S
Fe134       O145   2.026       .  S
Fe134       O150   2.108       .  S
Fe134       O144   1.956       .  S
Fe135       O153   2.108       .  S
Fe135       O140   2.033       .  S
Fe135       O147   2.026       .  S
Fe135       O136   2.108       .  S
Fe135       O144   1.956       .  S
O136        C143   1.273       .  A
O137        C151   1.262       .  A
O138        C143   1.258       .  A
O139        C142   1.281       .  A
O140        C152   1.262       .  A
O141        C154   1.273       .  A
C142        O147   1.264       .  A
C142        C221   1.430       .  S
C143        C177   1.443       .  S
O145        C148   1.264       .  A
O146        C148   1.281       .  A
C148        C209   1.430       .  S
O149        C154   1.258       .  A
O150        C152   1.276       .  A
C151        O153   1.276       .  A
C151       C1083   1.432       .  S
C152       C1079   1.431       .  S
C154        C179   1.443       .  S
Fe155       O171   2.033       .  S
Fe155       O161   2.109       .  S
Fe155       O168   2.109       .  S
Fe155       O160   2.033       .  S
Fe155       O166   1.948       .  S
Fe156       O159   2.033       .  S
Fe156       O167   2.026       .  S
Fe156       O172   2.108       .  S
Fe156       O387   2.109   1_554  S
Fe156       O166   1.956       .  S
Fe157       O175   2.108       .  S
Fe157       O162   2.033       .  S
Fe157       O169   2.026       .  S
Fe157       O158   2.109       .  S
Fe157       O166   1.956       .  S
O158        C165   1.273       .  A
O159        C173   1.262       .  A
O160        C165   1.258       .  A
O161        C164   1.281       .  A
O162        C174   1.262       .  A
O163       Fe380   2.109       .  S
O163        C176   1.273       .  A
C164        O169   1.264       .  A
C164        C212   1.430       .  S
C165        C180   1.443       .  S
O167        C170   1.264       .  A
O168        C170   1.281       .  A
C170        C223   1.430       .  S
O171        C400   1.258   1_554  A
O172        C174   1.276       .  A
C173        O175   1.276       .  A
C173        C406   1.432   1_554  S
C174        C185   1.431       .  S
C176        O395   1.258       .  A
C176        C178   1.443       .  S
C177        C178   1.211       .  T
C179        C180   1.211       .  T
C181        C182   1.204       .  T
C182        C397   1.432       .  S
C183       C1048   1.431   1_455  S
C183        C184   1.204       .  T
C185        C186   1.204       .  T
C187       C1047   1.432   1_455  S
C187        C188   1.204       .  T
C189        C190   1.211       .  T
C191        C192   1.211       .  T
C193        C194   1.204       .  T
C194        C556   1.431       .  S
C195        C353   1.431   1_554  S
C195        C196   1.204       .  T
C197        C555   1.431       .  S
C197        C198   1.204       .  T
C199        C200   1.211       .  T
C201        C202   1.211       .  T
C203        C204   1.204       .  T
C205        C310   1.431       .  S
C205        C206   1.204       .  T
C207        C208   1.204       .  T
C208        C959   1.432       .  S
C209        C210   1.204       .  T
C211        C266   1.431   1_554  S
C211        C212   1.204       .  T
C213        C214   1.204       .  T
C215        C960   1.431       .  S
C215        C216   1.204       .  T
C217        C218   1.211       .  T
C219        C220   1.211       .  T
C221        C222   1.204       .  T
C222        C468   1.431   1_545  S
C223        C224   1.204       .  T
C224        C467   1.431   1_545  S
Fe225       O241   2.110       .  S
Fe225       O231   2.033       .  S
Fe225       O238   2.033       .  S
Fe225       O230   2.109       .  S
Fe225       O236   1.948       .  S
Fe226       O229   2.107       .  S
Fe226       O233   2.026       .  S
Fe226       O237   2.108       .  S
Fe226       O242   2.032       .  S
Fe226       O236   1.956       .  S
Fe227       O245   2.033       .  S
Fe227       O232   2.108       .  S
Fe227       O239   2.108       .  S
Fe227       O228   2.026       .  S
Fe227       O236   1.956       .  S
O228        C235   1.264       .  A
O229        C243   1.276       .  A
O230        C235   1.281       .  A
O231        C234   1.258       .  A
O232        C244   1.276       .  A
O233        C246   1.264       .  A
C234        O239   1.273       .  A
C234        C442   1.442       .  S
C235        C440   1.431       .  S
O237        C240   1.273       .  A
O238        C240   1.258       .  A
C240        C443   1.443       .  S
O241        C246   1.281       .  A
O242        C244   1.262       .  A
C243        O245   1.262       .  A
C243        C896   1.431       .  S
C244        C894   1.431       .  S
C246        C438   1.431       .  S
Fe247       O263   2.110       .  S
Fe247       O253   2.033       .  S
Fe247       O260   2.033       .  S
Fe247       O252   2.110       .  S
Fe247       O258   1.948       .  S
Fe248       O251   2.107       .  S
Fe248       O255   2.026       .  S
Fe248       O264   2.033       .  S
Fe248       O258   1.956       .  S
Fe249       O267   2.032       .  S
Fe249       O254   2.108       .  S
Fe249       O261   2.108       .  S
Fe249       O250   2.026       .  S
Fe249       O258   1.956       .  S
O250        C257   1.264       .  A
O251        C265   1.276       .  A
O252        C257   1.281       .  A
O253        C256   1.258       .  A
O254        C266   1.276       .  A
O255        C268   1.264       .  A
C256        O261   1.273       .  A
C256        C444   1.443       .  S
C257        C430   1.431       .  S
O259        C262   1.273       .  A
C262        C441   1.443       .  S
O263        C268   1.281       .  A
O264        C266   1.262       .  A
C265        O267   1.262       .  A
C265        C434   1.431       .  S
C268        C431   1.431       .  S
Fe269       O285   2.033       .  S
Fe269       O275   2.109       .  S
Fe269       O282   2.109       .  S
Fe269       O274   2.033       .  S
Fe269       O280   1.948       .  S
Fe270       O273   2.033       .  S
Fe270       O277   2.108       .  S
Fe270       O281   2.026       .  S
Fe270       O286   2.108       .  S
Fe270       O280   1.956       .  S
Fe271       O289   2.108       .  S
Fe271       O276   2.033       .  S
Fe271       O283   2.026       .  S
Fe271       O272   2.108       .  S
Fe271       O280   1.956       .  S
O272        C279   1.273       .  A
O273        C287   1.262       .  A
O274        C279   1.258       .  A
O275        C278   1.281       .  A
O276        C288   1.262       .  A
O277        C290   1.273       .  A
C278        O283   1.264       .  A
C278        C427   1.430       .  S
C279        C425   1.443       .  S
O281        C284   1.264       .  A
O282        C284   1.281       .  A
C284        C422   1.430       .  S
O285        C290   1.258       .  A
O286        C288   1.276       .  A
C287        O289   1.276       .  A
C287       C1328   1.432   1_455  S
C288       C1335   1.431   1_455  S
C290        C424   1.443       .  S
Fe291       O307   2.033       .  S
Fe291       O297   2.109       .  S
Fe291       O304   2.109       .  S
Fe291       O302   1.948       .  S
Fe292       O295   2.033       .  S
Fe292       O299   2.109       .  S
Fe292       O303   2.026       .  S
Fe292       O308   2.108       .  S
Fe292       O302   1.956       .  S
Fe293       O311   2.108       .  S
Fe293       O305   2.026       .  S
Fe293       O302   1.956       .  S
O294        C301   1.273       .  A
O295        C309   1.262       .  A
O296        C301   1.258   1_554  A
O297        C300   1.281       .  A
O299        C312   1.273       .  A
C300        O305   1.264       .  A
C300        C417   1.430       .  S
C301        C423   1.443       .  S
O303        C306   1.264       .  A
O304        C306   1.281       .  A
C306        C420   1.430       .  S
O307        C312   1.258       .  A
O308        C310   1.276       .  A
C309        O311   1.276       .  A
C309        C437   1.432       .  S
C312        C426   1.443       .  S
Fe313       O329   2.110       .  S
Fe313       O319   2.033       .  S
Fe313       O326   2.033       .  S
Fe313       O318   2.110       .  S
Fe313       O324   1.948       .  S
Fe314       O317   2.107       .  S
Fe314       O321   2.026       .  S
Fe314       O325   2.108       .  S
Fe314       O330   2.033       .  S
Fe314       O324   1.956       .  S
Fe315       O333   2.032       .  S
Fe315       O320   2.108       .  S
Fe315       O327   2.108       .  S
Fe315       O316   2.026       .  S
Fe315       O324   1.956       .  S
O316        C323   1.264       .  A
O317        C331   1.276       .  A
O318        C323   1.281       .  A
O319        C322   1.258       .  A
O320        C332   1.276       .  A
O321        C334   1.264       .  A
C322        O327   1.273       .  A
C322        C415   1.443       .  S
C323        C410   1.431       .  S
O325        C328   1.273       .  A
O326        C328   1.258       .  A
C328        C413   1.443       .  S
O329        C334   1.281       .  A
O330        C332   1.262       .  A
C331        O333   1.262       .  A
C331        C869   1.431   1_545  S
C332        C866   1.431   1_545  S
C334        C412   1.431       .  S
Fe335       O351   2.110       .  S
Fe335       O341   2.033       .  S
Fe335       O348   2.033       .  S
Fe335       O340   2.109       .  S
Fe335       O346   1.948       .  S
Fe336       O339   2.107       .  S
Fe336       O343   2.026       .  S
Fe336       O347   2.108       .  S
Fe336       O352   2.032       .  S
Fe336       O346   1.956       .  S
Fe337       O355   2.033       .  S
Fe337       O342   2.108       .  S
Fe337       O338   2.026       .  S
Fe337       O346   1.956       .  S
O338        C345   1.264       .  A
O339        C353   1.276       .  A
O340        C345   1.281       .  A
O342        C354   1.276       .  A
O343        C356   1.264       .  A
C344        O349   1.273       .  A
C344        C414   1.442       .  S
C345        C408   1.431       .  S
O347        C350   1.273       .  A
O348        C350   1.258       .  A
C350        C416   1.443       .  S
O351        C356   1.281       .  A
O352        C354   1.262       .  A
C353        O355   1.262       .  A
C354        C428   1.431       .  S
C356        C405   1.431       .  S
Fe357       O373   2.033       .  S
Fe357       O363   2.109       .  S
Fe357       O370   2.109       .  S
Fe357       O362   2.033       .  S
Fe357       O368   1.948       .  S
Fe358       O361   2.033       .  S
Fe358       O365   2.108       .  S
Fe358       O369   2.026       .  S
Fe358       O374   2.108       .  S
Fe358       O368   1.956       .  S
Fe359       O377   2.108       .  S
Fe359       O364   2.033       .  S
Fe359       O371   2.026       .  S
Fe359       O360   2.108       .  S
Fe359       O368   1.956       .  S
O360        C367   1.273       .  A
O361        C375   1.262       .  A
O362        C367   1.258       .  A
O363        C366   1.281       .  A
O364        C376   1.262       .  A
O365        C378   1.273       .  A
C366        O371   1.264       .  A
C366        C445   1.430       .  S
C367        C401   1.443       .  S
O369        C372   1.264       .  A
O370        C372   1.281       .  A
C372        C433   1.430       .  S
O373        C378   1.258       .  A
O374        C376   1.276       .  A
C375        O377   1.276       .  A
C375       C1307   1.432       .  S
C376       C1303   1.431       .  S
C378        C403   1.443       .  S
Fe379       O395   2.033       .  S
Fe379       O385   2.109       .  S
Fe379       O392   2.109       .  S
Fe379       O384   2.033       .  S
Fe379       O390   1.948       .  S
Fe380       O383   2.033       .  S
Fe380       O391   2.026       .  S
Fe380       O396   2.108       .  S
Fe380       O390   1.956       .  S
Fe381       O399   2.108       .  S
Fe381       O386   2.033       .  S
Fe381       O393   2.026       .  S
Fe381       O382   2.109       .  S
Fe381       O390   1.956       .  S
O382        C389   1.273       .  A
O383        C397   1.262       .  A
O384        C389   1.258       .  A
O385        C388   1.281       .  A
O386        C398   1.262       .  A
O387        C400   1.273       .  A
C388        O393   1.264       .  A
C388        C436   1.430       .  S
C389        C404   1.443       .  S
O391        C394   1.264       .  A
O392        C394   1.281       .  A
C394        C447   1.430       .  S
O396        C398   1.276       .  A
C397        O399   1.276       .  A
C398        C409   1.431       .  S
C400        C402   1.443       .  S
C401        C402   1.211       .  T
C403        C404   1.211       .  T
C405        C406   1.204       .  T
C407       C1272   1.431   1_455  S
C407        C408   1.204       .  T
C409        C410   1.204       .  T
C411       C1271   1.432   1_455  S
C411        C412   1.204       .  T
C413        C414   1.211       .  T
C415        C416   1.211       .  T
C417        C418   1.204       .  T
C418        C780   1.431       .  S
C419        C420   1.204       .  T
C421        C779   1.431       .  S
C421        C422   1.204       .  T
C423        C424   1.211       .  T
C425        C426   1.211       .  T
C427        C428   1.204       .  T
C429        C430   1.204       .  T
C431        C432   1.204       .  T
C432       C1183   1.432       .  S
C433        C434   1.204       .  T
C435        C436   1.204       .  T
C437        C438   1.204       .  T
C439       C1184   1.431       .  S
C439        C440   1.204       .  T
C441        C442   1.211       .  T
C443        C444   1.211       .  T
C445        C446   1.204       .  T
C446        C692   1.431   1_545  S
C447        C448   1.204       .  T
C448        C691   1.431   1_545  S
Fe449       O465   2.110       .  S
Fe449       O455   2.033       .  S
Fe449       O462   2.033       .  S
Fe449       O454   2.109       .  S
Fe449       O460   1.948       .  S
Fe450       O453   2.107       .  S
Fe450       O457   2.026       .  S
Fe450       O461   2.108       .  S
Fe450       O466   2.032       .  S
Fe450       O460   1.956       .  S
Fe451       O469   2.033       .  S
Fe451       O456   2.108       .  S
Fe451       O463   2.108       .  S
Fe451       O452   2.026       .  S
Fe451       O460   1.956       .  S
O452        C459   1.264       .  A
O453        C467   1.276       .  A
O454        C459   1.281       .  A
O455        C458   1.258       .  A
O456        C468   1.276       .  A
O457        C470   1.264       .  A
C458        O463   1.273       .  A
C458        C666   1.442       .  S
C459        C664   1.431       .  S
O461        C464   1.273       .  A
O462        C464   1.258       .  A
C464        C667   1.443       .  S
O465        C470   1.281       .  A
O466        C468   1.262       .  A
C467        O469   1.262       .  A
C470        C662   1.431       .  S
Fe471       O487   2.110       .  S
Fe471       O477   2.033       .  S
Fe471       O484   2.033       .  S
Fe471       O476   2.110       .  S
Fe471       O482   1.948       .  S
Fe472       O475   2.107       .  S
Fe472       O479   2.026       .  S
Fe472       O707   2.108       .  S
Fe472       O488   2.033       .  S
Fe472       O482   1.956       .  S
Fe473       O491   2.032       .  S
Fe473       O478   2.108       .  S
Fe473       O485   2.108       .  S
Fe473       O474   2.026       .  S
Fe473       O482   1.956       .  S
O474        C481   1.264       .  A
O475        C489   1.276       .  A
O476        C481   1.281       .  A
O477        C480   1.258       .  A
O478        C490   1.276       .  A
O479        C492   1.264       .  A
C480        O485   1.273       .  A
C480        C668   1.443       .  S
C481        C654   1.431       .  S
O483       Fe696   2.108   1_554  S
O483        C486   1.273       .  A
O484        C710   1.258       .  A
C486        O708   1.258   1_554  A
C486        C665   1.443       .  S
O487        C492   1.281       .  A
O488        C490   1.262       .  A
C489        O491   1.262       .  A
C489        C658   1.431       .  S
C490        C883   1.431       .  S
C492        C655   1.431       .  S
Fe493       O509   2.033       .  S
Fe493       O499   2.109       .  S
Fe493       O506   2.109       .  S
Fe493       O498   2.033       .  S
Fe493       O504   1.948       .  S
Fe494       O497   2.033       .  S
Fe494       O501   2.108       .  S
Fe494       O505   2.026       .  S
Fe494       O510   2.108       .  S
Fe494       O504   1.956       .  S
Fe495       O513   2.108       .  S
Fe495       O500   2.033       .  S
Fe495       O507   2.026       .  S
Fe495       O496   2.108       .  S
Fe495       O504   1.956       .  S
O496        C503   1.273       .  A
O497        C511   1.262       .  A
O498        C503   1.258       .  A
O499        C502   1.281       .  A
O500        C512   1.262       .  A
O501        C514   1.273       .  A
C502        O507   1.264       .  A
C502        C651   1.430       .  S
C503        C649   1.443       .  S
O505        C508   1.264       .  A
O506        C508   1.281       .  A
C508        C646   1.430       .  S
O509        C514   1.258       .  A
O510        C512   1.276       .  A
C511        O513   1.276       .  A
C511       C1552   1.432   1_455  S
C512       C1559   1.431   1_455  S
C514        C648   1.443       .  S
Fe515       O531   2.033       .  S
Fe515       O521   2.109       .  S
Fe515       O528   2.109       .  S
Fe515       O744   2.033       .  S
Fe515       O526   1.948       .  S
Fe516       O519   2.033       .  S
Fe516       O523   2.109       .  S
Fe516       O527   2.026       .  S
Fe516       O532   2.108       .  S
Fe516       O526   1.956       .  S
Fe517       O535   2.108       .  S
Fe517       O746   2.033       .  S
Fe517       O529   2.026       .  S
Fe517       O742   2.109   1_554  S
Fe517       O526   1.956       .  S
O518       Fe741   2.109       .  S
O518        C525   1.273       .  A
O519        C533   1.262       .  A
O520       Fe739   2.033       .  S
O520        C525   1.258       .  A
O521        C524   1.281       .  A
O522       Fe741   2.033       .  S
O522        C758   1.262       .  A
O523        C536   1.273       .  A
C524        O529   1.264       .  A
C524        C641   1.430       .  S
C525        C647   1.443       .  S
O527        C530   1.264       .  A
O528        C530   1.281       .  A
C530        C644   1.430       .  S
O531        C536   1.258       .  A
O532        C534   1.276       .  A
C533        O535   1.276       .  A
C533        C661   1.432       .  S
C534        O746   1.262       .  A
C534        C877   1.431   1_554  S
C536        C650   1.443       .  S
Fe537       O553   2.110       .  S
Fe537       O543   2.033       .  S
Fe537       O550   2.033       .  S
Fe537       O542   2.110       .  S
Fe537       O548   1.948       .  S
Fe538       O541   2.107       .  S
Fe538       O545   2.026       .  S
Fe538       O549   2.108       .  S
Fe538       O554   2.033       .  S
Fe538       O548   1.956       .  S
Fe539       O557   2.032       .  S
Fe539       O544   2.108       .  S
Fe539       O551   2.108       .  S
Fe539       O540   2.026       .  S
Fe539       O548   1.956       .  S
O540        C547   1.264       .  A
O541        C555   1.276       .  A
O542        C547   1.281       .  A
O543        C546   1.258       .  A
O544        C556   1.276       .  A
O545        C558   1.264       .  A
C546        O551   1.273       .  A
C546        C639   1.443       .  S
C547        C634   1.431       .  S
O549        C552   1.273       .  A
O550        C552   1.258       .  A
C552        C637   1.443       .  S
O553        C558   1.281       .  A
O554        C556   1.262       .  A
C555        O557   1.262       .  A
C558        C636   1.431       .  S
Fe559       O575   2.110       .  S
Fe559       O565   2.033       .  S
Fe559       O572   2.033       .  S
Fe559       O564   2.109       .  S
Fe559       O570   1.948       .  S
Fe560       O563   2.107       .  S
Fe560       O567   2.026       .  S
Fe560       O571   2.108       .  S
Fe560       O576   2.032       .  S
Fe560       O570   1.956       .  S
Fe561       O579   2.033       .  S
Fe561       O566   2.108       .  S
Fe561       O797   2.108       .  S
Fe561       O562   2.026       .  S
Fe561       O570   1.956       .  S
O562        C569   1.264       .  A
O563        C577   1.276       .  A
O564        C569   1.281       .  A
O565        C792   1.258       .  A
O566        C578   1.276       .  A
O567        C580   1.264       .  A
C568        O789   1.258   1_554  A
C568        O573   1.273       .  A
C568        C638   1.442       .  S
C569        C632   1.431       .  S
O571        C574   1.273       .  A
O572        C574   1.258       .  A
O573       Fe785   2.108   1_554  S
C574        C640   1.443       .  S
O575        C580   1.281       .  A
O576        C578   1.262       .  A
C577        O579   1.262       .  A
C577        C867   1.431       .  S
C578        C652   1.431       .  S
C580        C629   1.431       .  S
Fe581       O597   2.033       .  S
Fe581       O587   2.109       .  S
Fe581       O594   2.109       .  S
Fe581       O586   2.033       .  S
Fe581       O592   1.948       .  S
Fe582       O585   2.033       .  S
Fe582       O589   2.108       .  S
Fe582       O593   2.026       .  S
Fe582       O598   2.108       .  S
Fe582       O592   1.956       .  S
Fe583       O601   2.108       .  S
Fe583       O588   2.033       .  S
Fe583       O595   2.026       .  S
Fe583       O584   2.108       .  S
Fe583       O592   1.956       .  S
O584        C591   1.273       .  A
O585        C599   1.262       .  A
O586        C591   1.258       .  A
O587        C590   1.281       .  A
O588        C600   1.262       .  A
O589        C602   1.273       .  A
C590        O595   1.264       .  A
C590        C669   1.430       .  S
C591        C625   1.443       .  S
O593        C596   1.264       .  A
O594        C596   1.281       .  A
C596        C657   1.430       .  S
O597        C602   1.258       .  A
O598        C600   1.276       .  A
C599        O601   1.276       .  A
C599       C1531   1.432       .  S
C600       C1527   1.431       .  S
C602        C627   1.443       .  S
Fe603       O619   2.033       .  S
Fe603       O609   2.109       .  S
Fe603       O616   2.109       .  S
Fe603       O608   2.033       .  S
Fe603       O614   1.948       .  S
Fe604       O607   2.033       .  S
Fe604       O835   2.109   1_554  S
Fe604       O615   2.026       .  S
Fe604       O620   2.108       .  S
Fe604       O614   1.956       .  S
Fe605       O623   2.108       .  S
Fe605       O610   2.033       .  S
Fe605       O617   2.026       .  S
Fe605       O606   2.109       .  S
Fe605       O614   1.956       .  S
O606        C613   1.273       .  A
O607        C621   1.262       .  A
O608        C613   1.258       .  A
O609        C612   1.281       .  A
O610        C622   1.262       .  A
O611       Fe828   2.109       .  S
O611        C624   1.273       .  A
C612        O617   1.264       .  A
C612        C660   1.430       .  S
C613        C628   1.443       .  S
O615        C618   1.264       .  A
O616        C618   1.281       .  A
C618        C671   1.430       .  S
O619        C848   1.258   1_554  A
O620        C622   1.276       .  A
C621        O623   1.276       .  A
C621        C854   1.432   1_554  S
C622        C633   1.431       .  S
C624        O843   1.258       .  A
C624        C626   1.443       .  S
C625        C626   1.211       .  T
C627        C628   1.211       .  T
C629        C630   1.204       .  T
C630        C845   1.432       .  S
C631       C1496   1.431   1_455  S
C631        C632   1.204       .  T
C633        C634   1.204       .  T
C635       C1495   1.432   1_455  S
C635        C636   1.204       .  T
C637        C638   1.211       .  T
C639        C640   1.211       .  T
C641        C642   1.204       .  T
C643        C801   1.431   1_554  S
C643        C644   1.204       .  T
C645        C646   1.204       .  T
C647        C648   1.211       .  T
C649        C650   1.211       .  T
C651        C652   1.204       .  T
C653        C758   1.431       .  S
C653        C654   1.204       .  T
C655        C656   1.204       .  T
C656       C1407   1.432       .  S
C657        C658   1.204       .  T
C659        C714   1.431   1_554  S
C659        C660   1.204       .  T
C661        C662   1.204       .  T
C663       C1408   1.431       .  S
C663        C664   1.204       .  T
C665        C666   1.211       .  T
C667        C668   1.211       .  T
C669        C670   1.204       .  T
C671        C672   1.204       .  T
Fe673       O689   2.110       .  S
Fe673       O679   2.033       .  S
Fe673       O686   2.033       .  S
Fe673       O678   2.109       .  S
Fe673       O684   1.948       .  S
Fe674       O677   2.107       .  S
Fe674       O681   2.026       .  S
Fe674       O685   2.108       .  S
Fe674       O690   2.032       .  S
Fe674       O684   1.956       .  S
Fe675       O693   2.033       .  S
Fe675       O680   2.108       .  S
Fe675       O687   2.108       .  S
Fe675       O676   2.026       .  S
Fe675       O684   1.956       .  S
O676        C683   1.264       .  A
O677        C691   1.276       .  A
O678        C683   1.281       .  A
O679        C682   1.258       .  A
O680        C692   1.276       .  A
O681        C694   1.264       .  A
C682        O687   1.273       .  A
C682        C890   1.443       .  S
C683        C888   1.431       .  S
O685        C688   1.273       .  A
O686        C688   1.258       .  A
C688        C891   1.443       .  S
O689        C694   1.281       .  A
O690        C692   1.262       .  A
C691        O693   1.262       .  A
C694        C886   1.431       .  S
Fe695       O711   2.110       .  S
Fe695       O701   2.033       .  S
Fe695       O708   2.033       .  S
Fe695       O700   2.110       .  S
Fe695       O706   1.948       .  S
Fe696       O699   2.107       .  S
Fe696       O703   2.026       .  S
Fe696       O712   2.033       .  S
Fe696       O706   1.956       .  S
Fe697       O715   2.032       .  S
Fe697       O702   2.108       .  S
Fe697       O709   2.108       .  S
Fe697       O698   2.026       .  S
Fe697       O706   1.956       .  S
O698        C705   1.264       .  A
O699        C713   1.276       .  A
O700        C705   1.281       .  A
O701        C704   1.258       .  A
O702        C714   1.276       .  A
O703        C716   1.264       .  A
C704        O709   1.273       .  A
C704        C892   1.443       .  S
C705        C878   1.431       .  S
O707        C710   1.273       .  A
C710        C889   1.443       .  S
O711        C716   1.281       .  A
O712        C714   1.262       .  A
C713        O715   1.262       .  A
C713        C882   1.431       .  S
C716        C879   1.431       .  S
Fe717       O733   2.033       .  S
Fe717       O723   2.109       .  S
Fe717       O730   2.109       .  S
Fe717       O722   2.033       .  S
Fe717       O728   1.948       .  S
Fe718       O721   2.033       .  S
Fe718       O725   2.108       .  S
Fe718       O729   2.026       .  S
Fe718       O734   2.108       .  S
Fe718       O728   1.956       .  S
Fe719       O737   2.108       .  S
Fe719       O724   2.033       .  S
Fe719       O731   2.026       .  S
Fe719       O720   2.108       .  S
Fe719       O728   1.956       .  S
O720        C727   1.273       .  A
O721        C735   1.262       .  A
O722        C727   1.258       .  A
O723        C726   1.281       .  A
O724        C736   1.262       .  A
O725        C738   1.273       .  A
C726        O731   1.264       .  A
C726        C875   1.430       .  S
C727        C873   1.443       .  S
O729        C732   1.264       .  A
O730        C732   1.281       .  A
C732        C870   1.430       .  S
O733        C738   1.258       .  A
O734        C736   1.276       .  A
C735        O737   1.276       .  A
C735       C1776   1.432   1_455  S
C736       C1783   1.431   1_455  S
C738        C872   1.443       .  S
Fe739       O755   2.033       .  S
Fe739       O745   2.109       .  S
Fe739       O752   2.109       .  S
Fe739       O750   1.948       .  S
Fe740       O743   2.033       .  S
Fe740       O747   2.109       .  S
Fe740       O751   2.026       .  S
Fe740       O756   2.108       .  S
Fe740       O750   1.956       .  S
Fe741       O759   2.108       .  S
Fe741       O753   2.026       .  S
Fe741       O750   1.956       .  S
O742        C749   1.273       .  A
O743        C757   1.262       .  A
O744        C749   1.258   1_554  A
O745        C748   1.281       .  A
O747        C760   1.273       .  A
C748        O753   1.264       .  A
C748        C865   1.430       .  S
C749        C871   1.443       .  S
O751        C754   1.264       .  A
O752        C754   1.281       .  A
C754        C868   1.430       .  S
O755        C760   1.258       .  A
O756        C758   1.276       .  A
C757        O759   1.276       .  A
C757        C885   1.432       .  S
C760        C874   1.443       .  S
Fe761       O777   2.110       .  S
Fe761       O767   2.033       .  S
Fe761       O774   2.033       .  S
Fe761       O766   2.110       .  S
Fe761       O772   1.948       .  S
Fe762       O765   2.107       .  S
Fe762       O769   2.026       .  S
Fe762       O773   2.108       .  S
Fe762       O778   2.033       .  S
Fe762       O772   1.956       .  S
Fe763       O781   2.032       .  S
Fe763       O768   2.108       .  S
Fe763       O775   2.108       .  S
Fe763       O764   2.026       .  S
Fe763       O772   1.956       .  S
O764        C771   1.264       .  A
O765        C779   1.276       .  A
O766        C771   1.281       .  A
O767        C770   1.258       .  A
O768        C780   1.276       .  A
O769        C782   1.264       .  A
C770        O775   1.273       .  A
C770        C863   1.443       .  S
C771        C858   1.431       .  S
O773        C776   1.273       .  A
O774        C776   1.258       .  A
C776        C861   1.443       .  S
O777        C782   1.281       .  A
O778        C780   1.262       .  A
C779        O781   1.262       .  A
C782        C860   1.431       .  S
Fe783       O799   2.110       .  S
Fe783       O789   2.033       .  S
Fe783       O796   2.033       .  S
Fe783       O788   2.109       .  S
Fe783       O794   1.948       .  S
Fe784       O787   2.107       .  S
Fe784       O791   2.026       .  S
Fe784       O795   2.108       .  S
Fe784       O800   2.032       .  S
Fe784       O794   1.956       .  S
Fe785       O803   2.033       .  S
Fe785       O790   2.108       .  S
Fe785       O786   2.026       .  S
Fe785       O794   1.956       .  S
O786        C793   1.264       .  A
O787        C801   1.276       .  A
O788        C793   1.281       .  A
O790        C802   1.276       .  A
O791        C804   1.264       .  A
C792        O797   1.273       .  A
C792        C862   1.442       .  S
C793        C856   1.431       .  S
O795        C798   1.273       .  A
O796        C798   1.258       .  A
C798        C864   1.443       .  S
O799        C804   1.281       .  A
O800        C802   1.262       .  A
C801        O803   1.262       .  A
C802        C876   1.431       .  S
C804        C853   1.431       .  S
Fe805       O821   2.033       .  S
Fe805       O811   2.109       .  S
Fe805       O818   2.109       .  S
Fe805       O810   2.033       .  S
Fe805       O816   1.948       .  S
Fe806       O809   2.033       .  S
Fe806       O813   2.108       .  S
Fe806       O817   2.026       .  S
Fe806       O822   2.108       .  S
Fe806       O816   1.956       .  S
Fe807       O825   2.108       .  S
Fe807       O812   2.033       .  S
Fe807       O819   2.026       .  S
Fe807       O808   2.108       .  S
Fe807       O816   1.956       .  S
O808        C815   1.273       .  A
O809        C823   1.262       .  A
O810        C815   1.258       .  A
O811        C814   1.281       .  A
O812        C824   1.262       .  A
O813        C826   1.273       .  A
C814        O819   1.264       .  A
C814        C893   1.430       .  S
C815        C849   1.443       .  S
O817        C820   1.264       .  A
O818        C820   1.281       .  A
C820        C881   1.430       .  S
O821        C826   1.258       .  A
O822        C824   1.276       .  A
C823        O825   1.276       .  A
C823       C1755   1.432       .  S
C824       C1751   1.431       .  S
C826        C851   1.443       .  S
Fe827       O843   2.033       .  S
Fe827       O833   2.109       .  S
Fe827       O840   2.109       .  S
Fe827       O832   2.033       .  S
Fe827       O838   1.948       .  S
Fe828       O831   2.033       .  S
Fe828       O839   2.026       .  S
Fe828       O844   2.108       .  S
Fe828       O838   1.956       .  S
Fe829       O847   2.108       .  S
Fe829       O834   2.033       .  S
Fe829       O841   2.026       .  S
Fe829       O830   2.109       .  S
Fe829       O838   1.956       .  S
O830        C837   1.273       .  A
O831        C845   1.262       .  A
O832        C837   1.258       .  A
O833        C836   1.281       .  A
O834        C846   1.262       .  A
O835        C848   1.273       .  A
C836        O841   1.264       .  A
C836        C884   1.430       .  S
C837        C852   1.443       .  S
O839        C842   1.264       .  A
O840        C842   1.281       .  A
C842        C895   1.430       .  S
O844        C846   1.276       .  A
C845        O847   1.276       .  A
C846        C857   1.431       .  S
C848        C850   1.443       .  S
C849        C850   1.211       .  T
C851        C852   1.211       .  T
C853        C854   1.204       .  T
C855       C1720   1.431   1_455  S
C855        C856   1.204       .  T
C857        C858   1.204       .  T
C859       C1719   1.432   1_455  S
C859        C860   1.204       .  T
C861        C862   1.211       .  T
C863        C864   1.211       .  T
C865        C866   1.204       .  T
C867        C868   1.204       .  T
C869        C870   1.204       .  T
C871        C872   1.211       .  T
C873        C874   1.211       .  T
C875        C876   1.204       .  T
C877        C878   1.204       .  T
C879        C880   1.204       .  T
C880       C1631   1.432       .  S
C881        C882   1.204       .  T
C883        C884   1.204       .  T
C885        C886   1.204       .  T
C887       C1632   1.431       .  S
C887        C888   1.204       .  T
C889        C890   1.211       .  T
C891        C892   1.211       .  T
C893        C894   1.204       .  T
C895        C896   1.204       .  T
Fe897       O913   2.110       .  S
Fe897       O903   2.033       .  S
Fe897       O910   2.033       .  S
Fe897       O902   2.109       .  S
Fe897       O908   1.948       .  S
Fe898       O901   2.107       .  S
Fe898       O905   2.026       .  S
Fe898       O909   2.108       .  S
Fe898       O914   2.032       .  S
Fe898       O908   1.956       .  S
Fe899       O917   2.033       .  S
Fe899       O904   2.108       .  S
Fe899       O911   2.108       .  S
Fe899       O900   2.026       .  S
Fe899       O908   1.956       .  S
O900        C907   1.264       .  A
O901        C915   1.276       .  A
O902        C907   1.281       .  A
O903        C906   1.258       .  A
O904        C916   1.276       .  A
O905        C918   1.264       .  A
C906        O911   1.273       .  A
C906       C1114   1.442       .  S
C907       C1112   1.431       .  S
O909        C912   1.273       .  A
O910        C912   1.258       .  A
C912       C1115   1.443       .  S
O913        C918   1.281       .  A
O914        C916   1.262       .  A
C915        O917   1.262       .  A
C915       C1568   1.431       .  S
C916       C1566   1.431       .  S
C918       C1110   1.431       .  S
Fe919       O935   2.110       .  S
Fe919       O925   2.033       .  S
Fe919       O932   2.033       .  S
Fe919       O924   2.110       .  S
Fe919       O930   1.948       .  S
Fe920       O923   2.107       .  S
Fe920       O927   2.026       .  S
Fe920      O1155   2.108       .  S
Fe920       O936   2.033       .  S
Fe920       O930   1.956       .  S
Fe921       O939   2.032       .  S
Fe921       O926   2.108       .  S
Fe921       O933   2.108       .  S
Fe921       O922   2.026       .  S
Fe921       O930   1.956       .  S
O922        C929   1.264       .  A
O923        C937   1.276       .  A
O924        C929   1.281       .  A
O925        C928   1.258       .  A
O926        C938   1.276       .  A
O927        C940   1.264       .  A
C928        O933   1.273       .  A
C928       C1116   1.443       .  S
C929       C1102   1.431       .  S
O931      Fe1144   2.108   1_554  S
O931        C934   1.273       .  A
O932       C1158   1.258       .  A
C934       O1156   1.258   1_554  A
C934       C1113   1.443       .  S
O935        C940   1.281       .  A
O936        C938   1.262       .  A
C937        O939   1.262       .  A
C937       C1106   1.431       .  S
C938       C1331   1.431       .  S
C940       C1103   1.431       .  S
Fe941       O957   2.033       .  S
Fe941       O947   2.109       .  S
Fe941       O954   2.109       .  S
Fe941       O946   2.033       .  S
Fe941       O952   1.948       .  S
Fe942       O945   2.033       .  S
Fe942       O949   2.108       .  S
Fe942       O953   2.026       .  S
Fe942       O958   2.108       .  S
Fe942       O952   1.956       .  S
Fe943       O961   2.108       .  S
Fe943       O948   2.033       .  S
Fe943       O955   2.026       .  S
Fe943       O944   2.108       .  S
Fe943       O952   1.956       .  S
O944        C951   1.273       .  A
O945        C959   1.262       .  A
O946        C951   1.258       .  A
O947        C950   1.281       .  A
O948        C960   1.262       .  A
O949        C962   1.273       .  A
C950        O955   1.264       .  A
C950       C1099   1.430       .  S
C951       C1097   1.443       .  S
O953        C956   1.264       .  A
O954        C956   1.281       .  A
C956       C1094   1.430       .  S
O957        C962   1.258       .  A
O958        C960   1.276       .  A
C959        O961   1.276       .  A
C962       C1096   1.443       .  S
Fe963       O979   2.033       .  S
Fe963       O969   2.109       .  S
Fe963       O976   2.109       .  S
Fe963      O1192   2.033       .  S
Fe963       O974   1.948       .  S
Fe964       O967   2.033       .  S
Fe964       O971   2.109       .  S
Fe964       O975   2.026       .  S
Fe964       O980   2.108       .  S
Fe964       O974   1.956       .  S
Fe965       O983   2.108       .  S
Fe965      O1194   2.033       .  S
Fe965       O977   2.026       .  S
Fe965      O1190   2.109   1_554  S
Fe965       O974   1.956       .  S
O966      Fe1189   2.109       .  S
O966        C973   1.273       .  A
O967        C981   1.262       .  A
O968      Fe1187   2.033       .  S
O968        C973   1.258       .  A
O969        C972   1.281       .  A
O970      Fe1189   2.033       .  S
O970       C1206   1.262       .  A
O971        C984   1.273       .  A
C972        O977   1.264       .  A
C972       C1089   1.430       .  S
C973       C1095   1.443       .  S
O975        C978   1.264       .  A
O976        C978   1.281       .  A
C978       C1092   1.430       .  S
O979        C984   1.258       .  A
O980        C982   1.276       .  A
C981        O983   1.276       .  A
C981       C1109   1.432       .  S
C982       O1194   1.262       .  A
C982       C1325   1.431   1_554  S
C984       C1098   1.443       .  S
Fe985      O1001   2.110       .  S
Fe985       O991   2.033       .  S
Fe985       O998   2.033       .  S
Fe985       O990   2.110       .  S
Fe985       O996   1.948       .  S
Fe986       O989   2.107       .  S
Fe986       O993   2.026       .  S
Fe986       O997   2.108       .  S
Fe986      O1002   2.033       .  S
Fe986       O996   1.956       .  S
Fe987      O1005   2.032       .  S
Fe987       O992   2.108       .  S
Fe987       O999   2.108       .  S
Fe987       O988   2.026       .  S
Fe987       O996   1.956       .  S
O988        C995   1.264       .  A
O989       C1003   1.276       .  A
O990        C995   1.281       .  A
O991        C994   1.258       .  A
O992       C1004   1.276       .  A
O993       C1006   1.264       .  A
C994        O999   1.273       .  A
C994       C1087   1.443       .  S
C995       C1082   1.431       .  S
O997       C1000   1.273       .  A
O998       C1000   1.258       .  A
C1000      C1085   1.443       .  S
O1001      C1006   1.281       .  A
O1002      C1004   1.262       .  A
C1003      O1005   1.262       .  A
C1003      C1541   1.431   1_545  S
C1004      C1538   1.431   1_545  S
C1006      C1084   1.431       .  S
Fe1007     O1023   2.110       .  S
Fe1007     O1013   2.033       .  S
Fe1007     O1020   2.033       .  S
Fe1007     O1012   2.109       .  S
Fe1007     O1018   1.948       .  S
Fe1008     O1011   2.107       .  S
Fe1008     O1015   2.026       .  S
Fe1008     O1019   2.108       .  S
Fe1008     O1024   2.032       .  S
Fe1008     O1018   1.956       .  S
Fe1009     O1027   2.033       .  S
Fe1009     O1014   2.108       .  S
Fe1009     O1245   2.108       .  S
Fe1009     O1010   2.026       .  S
Fe1009     O1018   1.956       .  S
O1010      C1017   1.264       .  A
O1011      C1025   1.276       .  A
O1012      C1017   1.281       .  A
O1013      C1240   1.258       .  A
O1014      C1026   1.276       .  A
O1015      C1028   1.264       .  A
C1016      O1237   1.258   1_554  A
C1016      O1021   1.273       .  A
C1016      C1086   1.442       .  S
C1017      C1080   1.431       .  S
O1019      C1022   1.273       .  A
O1020      C1022   1.258       .  A
O1021     Fe1233   2.108   1_554  S
C1022      C1088   1.443       .  S
O1023      C1028   1.281       .  A
O1024      C1026   1.262       .  A
C1025      O1027   1.262       .  A
C1025      C1315   1.431       .  S
C1026      C1100   1.431       .  S
C1028      C1077   1.431       .  S
Fe1029     O1045   2.033       .  S
Fe1029     O1035   2.109       .  S
Fe1029     O1042   2.109       .  S
Fe1029     O1034   2.033       .  S
Fe1029     O1040   1.948       .  S
Fe1030     O1033   2.033       .  S
Fe1030     O1037   2.108       .  S
Fe1030     O1041   2.026       .  S
Fe1030     O1046   2.108       .  S
Fe1030     O1040   1.956       .  S
Fe1031     O1049   2.108       .  S
Fe1031     O1036   2.033       .  S
Fe1031     O1043   2.026       .  S
Fe1031     O1032   2.108       .  S
Fe1031     O1040   1.956       .  S
O1032      C1039   1.273       .  A
O1033      C1047   1.262       .  A
O1034      C1039   1.258       .  A
O1035      C1038   1.281       .  A
O1036      C1048   1.262       .  A
O1037      C1050   1.273       .  A
C1038      O1043   1.264       .  A
C1038      C1117   1.430       .  S
C1039      C1073   1.443       .  S
O1041      C1044   1.264       .  A
O1042      C1044   1.281       .  A
C1044      C1105   1.430       .  S
O1045      C1050   1.258       .  A
O1046      C1048   1.276       .  A
C1047      O1049   1.276       .  A
C1050      C1075   1.443       .  S
Fe1051     O1067   2.033       .  S
Fe1051     O1057   2.109       .  S
Fe1051     O1064   2.109       .  S
Fe1051     O1056   2.033       .  S
Fe1051     O1062   1.948       .  S
Fe1052     O1055   2.033       .  S
Fe1052     O1283   2.109   1_554  S
Fe1052     O1063   2.026       .  S
Fe1052     O1068   2.108       .  S
Fe1052     O1062   1.956       .  S
Fe1053     O1071   2.108       .  S
Fe1053     O1058   2.033       .  S
Fe1053     O1065   2.026       .  S
Fe1053     O1054   2.109       .  S
Fe1053     O1062   1.956       .  S
O1054      C1061   1.273       .  A
O1055      C1069   1.262       .  A
O1056      C1061   1.258       .  A
O1057      C1060   1.281       .  A
O1058      C1070   1.262       .  A
O1059     Fe1276   2.109       .  S
O1059      C1072   1.273       .  A
C1060      O1065   1.264       .  A
C1060      C1108   1.430       .  S
C1061      C1076   1.443       .  S
O1063      C1066   1.264       .  A
O1064      C1066   1.281       .  A
C1066      C1119   1.430       .  S
O1067      C1296   1.258   1_554  A
O1068      C1070   1.276       .  A
C1069      O1071   1.276       .  A
C1069      C1302   1.432   1_554  S
C1070      C1081   1.431       .  S
C1072      O1291   1.258       .  A
C1072      C1074   1.443       .  S
C1073      C1074   1.211       .  T
C1075      C1076   1.211       .  T
C1077      C1078   1.204       .  T
C1078      C1293   1.432       .  S
C1079      C1080   1.204       .  T
C1081      C1082   1.204       .  T
C1083      C1084   1.204       .  T
C1085      C1086   1.211       .  T
C1087      C1088   1.211       .  T
C1089      C1090   1.204       .  T
C1090      C1452   1.431       .  S
C1091      C1249   1.431   1_554  S
C1091      C1092   1.204       .  T
C1093      C1451   1.431       .  S
C1093      C1094   1.204       .  T
C1095      C1096   1.211       .  T
C1097      C1098   1.211       .  T
C1099      C1100   1.204       .  T
C1101      C1206   1.431       .  S
C1101      C1102   1.204       .  T
C1103      C1104   1.204       .  T
C1105      C1106   1.204       .  T
C1107      C1162   1.431   1_554  S
C1107      C1108   1.204       .  T
C1109      C1110   1.204       .  T
C1111      C1112   1.204       .  T
C1113      C1114   1.211       .  T
C1115      C1116   1.211       .  T
C1117      C1118   1.204       .  T
C1118      C1364   1.431   1_545  S
C1119      C1120   1.204       .  T
C1120      C1363   1.431   1_545  S
Fe1121     O1137   2.110       .  S
Fe1121     O1127   2.033       .  S
Fe1121     O1134   2.033       .  S
Fe1121     O1126   2.109       .  S
Fe1121     O1132   1.948       .  S
Fe1122     O1125   2.107       .  S
Fe1122     O1129   2.026       .  S
Fe1122     O1133   2.108       .  S
Fe1122     O1138   2.032       .  S
Fe1122     O1132   1.956       .  S
Fe1123     O1141   2.033       .  S
Fe1123     O1128   2.108       .  S
Fe1123     O1135   2.108       .  S
Fe1123     O1124   2.026       .  S
Fe1123     O1132   1.956       .  S
O1124      C1131   1.264       .  A
O1125      C1139   1.276       .  A
O1126      C1131   1.281       .  A
O1127      C1130   1.258       .  A
O1128      C1140   1.276       .  A
O1129      C1142   1.264       .  A
C1130      O1135   1.273       .  A
C1130      C1338   1.442       .  S
C1131      C1336   1.431       .  S
O1133      C1136   1.273       .  A
O1134      C1136   1.258       .  A
C1136      C1339   1.443       .  S
O1137      C1142   1.281       .  A
O1138      C1140   1.262       .  A
C1139      O1141   1.262       .  A
C1139      C1792   1.431       .  S
C1140      C1790   1.431       .  S
C1142      C1334   1.431       .  S
Fe1143     O1159   2.110       .  S
Fe1143     O1149   2.033       .  S
Fe1143     O1156   2.033       .  S
Fe1143     O1148   2.110       .  S
Fe1143     O1154   1.948       .  S
Fe1144     O1147   2.107       .  S
Fe1144     O1151   2.026       .  S
Fe1144     O1160   2.033       .  S
Fe1144     O1154   1.956       .  S
Fe1145     O1163   2.032       .  S
Fe1145     O1150   2.108       .  S
Fe1145     O1157   2.108       .  S
Fe1145     O1146   2.026       .  S
Fe1145     O1154   1.956       .  S
O1146      C1153   1.264       .  A
O1147      C1161   1.276       .  A
O1148      C1153   1.281       .  A
O1149      C1152   1.258       .  A
O1150      C1162   1.276       .  A
O1151      C1164   1.264       .  A
C1152      O1157   1.273       .  A
C1152      C1340   1.443       .  S
C1153      C1326   1.431       .  S
O1155      C1158   1.273       .  A
C1158      C1337   1.443       .  S
O1159      C1164   1.281       .  A
O1160      C1162   1.262       .  A
C1161      O1163   1.262       .  A
C1161      C1330   1.431       .  S
C1164      C1327   1.431       .  S
Fe1165     O1181   2.033       .  S
Fe1165     O1171   2.109       .  S
Fe1165     O1178   2.109       .  S
Fe1165     O1170   2.033       .  S
Fe1165     O1176   1.948       .  S
Fe1166     O1169   2.033       .  S
Fe1166     O1173   2.108       .  S
Fe1166     O1177   2.026       .  S
Fe1166     O1182   2.108       .  S
Fe1166     O1176   1.956       .  S
Fe1167     O1185   2.108       .  S
Fe1167     O1172   2.033       .  S
Fe1167     O1179   2.026       .  S
Fe1167     O1168   2.108       .  S
Fe1167     O1176   1.956       .  S
O1168      C1175   1.273       .  A
O1169      C1183   1.262       .  A
O1170      C1175   1.258       .  A
O1171      C1174   1.281       .  A
O1172      C1184   1.262       .  A
O1173      C1186   1.273       .  A
C1174      O1179   1.264       .  A
C1174      C1323   1.430       .  S
C1175      C1321   1.443       .  S
O1177      C1180   1.264       .  A
O1178      C1180   1.281       .  A
C1180      C1318   1.430       .  S
O1181      C1186   1.258       .  A
O1182      C1184   1.276       .  A
C1183      O1185   1.276       .  A
C1186      C1320   1.443       .  S
Fe1187     O1203   2.033       .  S
Fe1187     O1193   2.109       .  S
Fe1187     O1200   2.109       .  S
Fe1187     O1198   1.948       .  S
Fe1188     O1191   2.033       .  S
Fe1188     O1195   2.109       .  S
Fe1188     O1199   2.026       .  S
Fe1188     O1204   2.108       .  S
Fe1188     O1198   1.956       .  S
Fe1189     O1207   2.108       .  S
Fe1189     O1201   2.026       .  S
Fe1189     O1198   1.956       .  S
O1190      C1197   1.273       .  A
O1191      C1205   1.262       .  A
O1192      C1197   1.258   1_554  A
O1193      C1196   1.281       .  A
O1195      C1208   1.273       .  A
C1196      O1201   1.264       .  A
C1196      C1313   1.430       .  S
C1197      C1319   1.443       .  S
O1199      C1202   1.264       .  A
O1200      C1202   1.281       .  A
C1202      C1316   1.430       .  S
O1203      C1208   1.258       .  A
O1204      C1206   1.276       .  A
C1205      O1207   1.276       .  A
C1205      C1333   1.432       .  S
C1208      C1322   1.443       .  S
Fe1209     O1225   2.110       .  S
Fe1209     O1215   2.033       .  S
Fe1209     O1222   2.033       .  S
Fe1209     O1214   2.110       .  S
Fe1209     O1220   1.948       .  S
Fe1210     O1213   2.107       .  S
Fe1210     O1217   2.026       .  S
Fe1210     O1221   2.108       .  S
Fe1210     O1226   2.033       .  S
Fe1210     O1220   1.956       .  S
Fe1211     O1229   2.032       .  S
Fe1211     O1216   2.108       .  S
Fe1211     O1223   2.108       .  S
Fe1211     O1212   2.026       .  S
Fe1211     O1220   1.956       .  S
O1212      C1219   1.264       .  A
O1213      C1227   1.276       .  A
O1214      C1219   1.281       .  A
O1215      C1218   1.258       .  A
O1216      C1228   1.276       .  A
O1217      C1230   1.264       .  A
C1218      O1223   1.273       .  A
C1218      C1311   1.443       .  S
C1219      C1306   1.431       .  S
O1221      C1224   1.273       .  A
O1222      C1224   1.258       .  A
C1224      C1309   1.443       .  S
O1225      C1230   1.281       .  A
O1226      C1228   1.262       .  A
C1227      O1229   1.262       .  A
C1227      C1765   1.431   1_545  S
C1228      C1762   1.431   1_545  S
C1230      C1308   1.431       .  S
Fe1231     O1247   2.110       .  S
Fe1231     O1237   2.033       .  S
Fe1231     O1244   2.033       .  S
Fe1231     O1236   2.109       .  S
Fe1231     O1242   1.948       .  S
Fe1232     O1235   2.107       .  S
Fe1232     O1239   2.026       .  S
Fe1232     O1243   2.108       .  S
Fe1232     O1248   2.032       .  S
Fe1232     O1242   1.956       .  S
Fe1233     O1251   2.033       .  S
Fe1233     O1238   2.108       .  S
Fe1233     O1234   2.026       .  S
Fe1233     O1242   1.956       .  S
O1234      C1241   1.264       .  A
O1235      C1249   1.276       .  A
O1236      C1241   1.281       .  A
O1238      C1250   1.276       .  A
O1239      C1252   1.264       .  A
C1240      O1245   1.273       .  A
C1240      C1310   1.442       .  S
C1241      C1304   1.431       .  S
O1243      C1246   1.273       .  A
O1244      C1246   1.258       .  A
C1246      C1312   1.443       .  S
O1247      C1252   1.281       .  A
O1248      C1250   1.262       .  A
C1249      O1251   1.262       .  A
C1250      C1324   1.431       .  S
C1252      C1301   1.431       .  S
Fe1253     O1269   2.033       .  S
Fe1253     O1259   2.109       .  S
Fe1253     O1266   2.109       .  S
Fe1253     O1258   2.033       .  S
Fe1253     O1264   1.948       .  S
Fe1254     O1257   2.033       .  S
Fe1254     O1261   2.108       .  S
Fe1254     O1265   2.026       .  S
Fe1254     O1270   2.108       .  S
Fe1254     O1264   1.956       .  S
Fe1255     O1273   2.108       .  S
Fe1255     O1260   2.033       .  S
Fe1255     O1267   2.026       .  S
Fe1255     O1256   2.108       .  S
Fe1255     O1264   1.956       .  S
O1256      C1263   1.273       .  A
O1257      C1271   1.262       .  A
O1258      C1263   1.258       .  A
O1259      C1262   1.281       .  A
O1260      C1272   1.262       .  A
O1261      C1274   1.273       .  A
C1262      O1267   1.264       .  A
C1262      C1341   1.430       .  S
C1263      C1297   1.443       .  S
O1265      C1268   1.264       .  A
O1266      C1268   1.281       .  A
C1268      C1329   1.430       .  S
O1269      C1274   1.258       .  A
O1270      C1272   1.276       .  A
C1271      O1273   1.276       .  A
C1274      C1299   1.443       .  S
Fe1275     O1291   2.033       .  S
Fe1275     O1281   2.109       .  S
Fe1275     O1288   2.109       .  S
Fe1275     O1280   2.033       .  S
Fe1275     O1286   1.948       .  S
Fe1276     O1279   2.033       .  S
Fe1276     O1287   2.026       .  S
Fe1276     O1292   2.108       .  S
Fe1276     O1286   1.956       .  S
Fe1277     O1295   2.108       .  S
Fe1277     O1282   2.033       .  S
Fe1277     O1289   2.026       .  S
Fe1277     O1278   2.109       .  S
Fe1277     O1286   1.956       .  S
O1278      C1285   1.273       .  A
O1279      C1293   1.262       .  A
O1280      C1285   1.258       .  A
O1281      C1284   1.281       .  A
O1282      C1294   1.262       .  A
O1283      C1296   1.273       .  A
C1284      O1289   1.264       .  A
C1284      C1332   1.430       .  S
C1285      C1300   1.443       .  S
O1287      C1290   1.264       .  A
O1288      C1290   1.281       .  A
C1290      C1343   1.430       .  S
O1292      C1294   1.276       .  A
C1293      O1295   1.276       .  A
C1294      C1305   1.431       .  S
C1296      C1298   1.443       .  S
C1297      C1298   1.211       .  T
C1299      C1300   1.211       .  T
C1301      C1302   1.204       .  T
C1303      C1304   1.204       .  T
C1305      C1306   1.204       .  T
C1307      C1308   1.204       .  T
C1309      C1310   1.211       .  T
C1311      C1312   1.211       .  T
C1313      C1314   1.204       .  T
C1314      C1676   1.431       .  S
C1315      C1316   1.204       .  T
C1317      C1675   1.431       .  S
C1317      C1318   1.204       .  T
C1319      C1320   1.211       .  T
C1321      C1322   1.211       .  T
C1323      C1324   1.204       .  T
C1325      C1326   1.204       .  T
C1327      C1328   1.204       .  T
C1329      C1330   1.204       .  T
C1331      C1332   1.204       .  T
C1333      C1334   1.204       .  T
C1335      C1336   1.204       .  T
C1337      C1338   1.211       .  T
C1339      C1340   1.211       .  T
C1341      C1342   1.204       .  T
C1342      C1588   1.431   1_545  S
C1343      C1344   1.204       .  T
C1344      C1587   1.431   1_545  S
Fe1345     O1361   2.110       .  S
Fe1345     O1351   2.033       .  S
Fe1345     O1358   2.033       .  S
Fe1345     O1350   2.109       .  S
Fe1345     O1356   1.948       .  S
Fe1346     O1349   2.107       .  S
Fe1346     O1353   2.026       .  S
Fe1346     O1357   2.108       .  S
Fe1346     O1362   2.032       .  S
Fe1346     O1356   1.956       .  S
Fe1347     O1365   2.033       .  S
Fe1347     O1352   2.108       .  S
Fe1347     O1359   2.108       .  S
Fe1347     O1348   2.026       .  S
Fe1347     O1356   1.956       .  S
O1348      C1355   1.264       .  A
O1349      C1363   1.276       .  A
O1350      C1355   1.281       .  A
O1351      C1354   1.258       .  A
O1352      C1364   1.276       .  A
O1353      C1366   1.264       .  A
C1354      O1359   1.273       .  A
C1354      C1562   1.442       .  S
C1355      C1560   1.431       .  S
O1357      C1360   1.273       .  A
O1358      C1360   1.258       .  A
C1360      C1563   1.443       .  S
O1361      C1366   1.281       .  A
O1362      C1364   1.262       .  A
C1363      O1365   1.262       .  A
C1366      C1558   1.431       .  S
Fe1367     O1383   2.110       .  S
Fe1367     O1373   2.033       .  S
Fe1367     O1380   2.033       .  S
Fe1367     O1372   2.110       .  S
Fe1367     O1378   1.948       .  S
Fe1368     O1371   2.107       .  S
Fe1368     O1375   2.026       .  S
Fe1368     O1603   2.108       .  S
Fe1368     O1384   2.033       .  S
Fe1368     O1378   1.956       .  S
Fe1369     O1387   2.032       .  S
Fe1369     O1374   2.108       .  S
Fe1369     O1381   2.108       .  S
Fe1369     O1370   2.026       .  S
Fe1369     O1378   1.956       .  S
O1370      C1377   1.264       .  A
O1371      C1385   1.276       .  A
O1372      C1377   1.281       .  A
O1373      C1376   1.258       .  A
O1374      C1386   1.276       .  A
O1375      C1388   1.264       .  A
C1376      O1381   1.273       .  A
C1376      C1564   1.443       .  S
C1377      C1550   1.431       .  S
O1379     Fe1592   2.108   1_554  S
O1379      C1382   1.273       .  A
O1380      C1606   1.258       .  A
C1382      O1604   1.258   1_554  A
C1382      C1561   1.443       .  S
O1383      C1388   1.281       .  A
O1384      C1386   1.262       .  A
C1385      O1387   1.262       .  A
C1385      C1554   1.431       .  S
C1386      C1779   1.431       .  S
C1388      C1551   1.431       .  S
Fe1389     O1405   2.033       .  S
Fe1389     O1395   2.109       .  S
Fe1389     O1402   2.109       .  S
Fe1389     O1394   2.033       .  S
Fe1389     O1400   1.948       .  S
Fe1390     O1393   2.033       .  S
Fe1390     O1397   2.108       .  S
Fe1390     O1401   2.026       .  S
Fe1390     O1406   2.108       .  S
Fe1390     O1400   1.956       .  S
Fe1391     O1409   2.108       .  S
Fe1391     O1396   2.033       .  S
Fe1391     O1403   2.026       .  S
Fe1391     O1392   2.108       .  S
Fe1391     O1400   1.956       .  S
O1392      C1399   1.273       .  A
O1393      C1407   1.262       .  A
O1394      C1399   1.258       .  A
O1395      C1398   1.281       .  A
O1396      C1408   1.262       .  A
O1397      C1410   1.273       .  A
C1398      O1403   1.264       .  A
C1398      C1547   1.430       .  S
C1399      C1545   1.443       .  S
O1401      C1404   1.264       .  A
O1402      C1404   1.281       .  A
C1404      C1542   1.430       .  S
O1405      C1410   1.258       .  A
O1406      C1408   1.276       .  A
C1407      O1409   1.276       .  A
C1410      C1544   1.443       .  S
Fe1411     O1427   2.033       .  S
Fe1411     O1417   2.109       .  S
Fe1411     O1424   2.109       .  S
Fe1411     O1640   2.033       .  S
Fe1411     O1422   1.948       .  S
Fe1412     O1415   2.033       .  S
Fe1412     O1419   2.109       .  S
Fe1412     O1423   2.026       .  S
Fe1412     O1428   2.108       .  S
Fe1412     O1422   1.956       .  S
Fe1413     O1431   2.108       .  S
Fe1413     O1642   2.033       .  S
Fe1413     O1425   2.026       .  S
Fe1413     O1638   2.109   1_554  S
Fe1413     O1422   1.956       .  S
O1414     Fe1637   2.109       .  S
O1414      C1421   1.273       .  A
O1415      C1429   1.262       .  A
O1416     Fe1635   2.033       .  S
O1416      C1421   1.258       .  A
O1417      C1420   1.281       .  A
O1418     Fe1637   2.033       .  S
O1418      C1654   1.262       .  A
O1419      C1432   1.273       .  A
C1420      O1425   1.264       .  A
C1420      C1537   1.430       .  S
C1421      C1543   1.443       .  S
O1423      C1426   1.264       .  A
O1424      C1426   1.281       .  A
C1426      C1540   1.430       .  S
O1427      C1432   1.258       .  A
O1428      C1430   1.276       .  A
C1429      O1431   1.276       .  A
C1429      C1557   1.432       .  S
C1430      O1642   1.262       .  A
C1430      C1773   1.431   1_554  S
C1432      C1546   1.443       .  S
Fe1433     O1449   2.110       .  S
Fe1433     O1439   2.033       .  S
Fe1433     O1446   2.033       .  S
Fe1433     O1438   2.110       .  S
Fe1433     O1444   1.948       .  S
Fe1434     O1437   2.107       .  S
Fe1434     O1441   2.026       .  S
Fe1434     O1445   2.108       .  S
Fe1434     O1450   2.033       .  S
Fe1434     O1444   1.956       .  S
Fe1435     O1453   2.032       .  S
Fe1435     O1440   2.108       .  S
Fe1435     O1447   2.108       .  S
Fe1435     O1436   2.026       .  S
Fe1435     O1444   1.956       .  S
O1436      C1443   1.264       .  A
O1437      C1451   1.276       .  A
O1438      C1443   1.281       .  A
O1439      C1442   1.258       .  A
O1440      C1452   1.276       .  A
O1441      C1454   1.264       .  A
C1442      O1447   1.273       .  A
C1442      C1535   1.443       .  S
C1443      C1530   1.431       .  S
O1445      C1448   1.273       .  A
O1446      C1448   1.258       .  A
C1448      C1533   1.443       .  S
O1449      C1454   1.281       .  A
O1450      C1452   1.262       .  A
C1451      O1453   1.262       .  A
C1454      C1532   1.431       .  S
Fe1455     O1471   2.110       .  S
Fe1455     O1461   2.033       .  S
Fe1455     O1468   2.033       .  S
Fe1455     O1460   2.109       .  S
Fe1455     O1466   1.948       .  S
Fe1456     O1459   2.107       .  S
Fe1456     O1463   2.026       .  S
Fe1456     O1467   2.108       .  S
Fe1456     O1472   2.032       .  S
Fe1456     O1466   1.956       .  S
Fe1457     O1475   2.033       .  S
Fe1457     O1462   2.108       .  S
Fe1457     O1693   2.108       .  S
Fe1457     O1458   2.026       .  S
Fe1457     O1466   1.956       .  S
O1458      C1465   1.264       .  A
O1459      C1473   1.276       .  A
O1460      C1465   1.281       .  A
O1461      C1688   1.258       .  A
O1462      C1474   1.276       .  A
O1463      C1476   1.264       .  A
C1464      O1685   1.258   1_554  A
C1464      O1469   1.273       .  A
C1464      C1534   1.442       .  S
C1465      C1528   1.431       .  S
O1467      C1470   1.273       .  A
O1468      C1470   1.258       .  A
O1469     Fe1681   2.108   1_554  S
C1470      C1536   1.443       .  S
O1471      C1476   1.281       .  A
O1472      C1474   1.262       .  A
C1473      O1475   1.262       .  A
C1473      C1763   1.431       .  S
C1474      C1548   1.431       .  S
C1476      C1525   1.431       .  S
Fe1477     O1493   2.033       .  S
Fe1477     O1483   2.109       .  S
Fe1477     O1490   2.109       .  S
Fe1477     O1482   2.033       .  S
Fe1477     O1488   1.948       .  S
Fe1478     O1481   2.033       .  S
Fe1478     O1485   2.108       .  S
Fe1478     O1489   2.026       .  S
Fe1478     O1494   2.108       .  S
Fe1478     O1488   1.956       .  S
Fe1479     O1497   2.108       .  S
Fe1479     O1484   2.033       .  S
Fe1479     O1491   2.026       .  S
Fe1479     O1480   2.108       .  S
Fe1479     O1488   1.956       .  S
O1480      C1487   1.273       .  A
O1481      C1495   1.262       .  A
O1482      C1487   1.258       .  A
O1483      C1486   1.281       .  A
O1484      C1496   1.262       .  A
O1485      C1498   1.273       .  A
C1486      O1491   1.264       .  A
C1486      C1565   1.430       .  S
C1487      C1521   1.443       .  S
O1489      C1492   1.264       .  A
O1490      C1492   1.281       .  A
C1492      C1553   1.430       .  S
O1493      C1498   1.258       .  A
O1494      C1496   1.276       .  A
C1495      O1497   1.276       .  A
C1498      C1523   1.443       .  S
Fe1499     O1515   2.033       .  S
Fe1499     O1505   2.109       .  S
Fe1499     O1512   2.109       .  S
Fe1499     O1504   2.033       .  S
Fe1499     O1510   1.948       .  S
Fe1500     O1503   2.033       .  S
Fe1500     O1731   2.109   1_554  S
Fe1500     O1511   2.026       .  S
Fe1500     O1516   2.108       .  S
Fe1500     O1510   1.956       .  S
Fe1501     O1519   2.108       .  S
Fe1501     O1506   2.033       .  S
Fe1501     O1513   2.026       .  S
Fe1501     O1502   2.109       .  S
Fe1501     O1510   1.956       .  S
O1502      C1509   1.273       .  A
O1503      C1517   1.262       .  A
O1504      C1509   1.258       .  A
O1505      C1508   1.281       .  A
O1506      C1518   1.262       .  A
O1507     Fe1724   2.109       .  S
O1507      C1520   1.273       .  A
C1508      O1513   1.264       .  A
C1508      C1556   1.430       .  S
C1509      C1524   1.443       .  S
O1511      C1514   1.264       .  A
O1512      C1514   1.281       .  A
C1514      C1567   1.430       .  S
O1515      C1744   1.258   1_554  A
O1516      C1518   1.276       .  A
C1517      O1519   1.276       .  A
C1517      C1750   1.432   1_554  S
C1518      C1529   1.431       .  S
C1520      O1739   1.258       .  A
C1520      C1522   1.443       .  S
C1521      C1522   1.211       .  T
C1523      C1524   1.211       .  T
C1525      C1526   1.204       .  T
C1526      C1741   1.432       .  S
C1527      C1528   1.204       .  T
C1529      C1530   1.204       .  T
C1531      C1532   1.204       .  T
C1533      C1534   1.211       .  T
C1535      C1536   1.211       .  T
C1537      C1538   1.204       .  T
C1539      C1697   1.431   1_554  S
C1539      C1540   1.204       .  T
C1541      C1542   1.204       .  T
C1543      C1544   1.211       .  T
C1545      C1546   1.211       .  T
C1547      C1548   1.204       .  T
C1549      C1654   1.431       .  S
C1549      C1550   1.204       .  T
C1551      C1552   1.204       .  T
C1553      C1554   1.204       .  T
C1555      C1610   1.431   1_554  S
C1555      C1556   1.204       .  T
C1557      C1558   1.204       .  T
C1559      C1560   1.204       .  T
C1561      C1562   1.211       .  T
C1563      C1564   1.211       .  T
C1565      C1566   1.204       .  T
C1567      C1568   1.204       .  T
Fe1569     O1585   2.110       .  S
Fe1569     O1575   2.033       .  S
Fe1569     O1582   2.033       .  S
Fe1569     O1574   2.109       .  S
Fe1569     O1580   1.948       .  S
Fe1570     O1573   2.107       .  S
Fe1570     O1577   2.026       .  S
Fe1570     O1581   2.108       .  S
Fe1570     O1586   2.032       .  S
Fe1570     O1580   1.956       .  S
Fe1571     O1589   2.033       .  S
Fe1571     O1576   2.108       .  S
Fe1571     O1583   2.108       .  S
Fe1571     O1572   2.026       .  S
Fe1571     O1580   1.956       .  S
O1572      C1579   1.264       .  A
O1573      C1587   1.276       .  A
O1574      C1579   1.281       .  A
O1575      C1578   1.258       .  A
O1576      C1588   1.276       .  A
O1577      C1590   1.264       .  A
C1578      O1583   1.273       .  A
C1578      C1786   1.443       .  S
C1579      C1784   1.431       .  S
O1581      C1584   1.273       .  A
O1582      C1584   1.258       .  A
C1584      C1787   1.443       .  S
O1585      C1590   1.281       .  A
O1586      C1588   1.262       .  A
C1587      O1589   1.262       .  A
C1590      C1782   1.431       .  S
Fe1591     O1607   2.110       .  S
Fe1591     O1597   2.033       .  S
Fe1591     O1604   2.033       .  S
Fe1591     O1596   2.110       .  S
Fe1591     O1602   1.948       .  S
Fe1592     O1595   2.107       .  S
Fe1592     O1599   2.026       .  S
Fe1592     O1608   2.033       .  S
Fe1592     O1602   1.956       .  S
Fe1593     O1611   2.032       .  S
Fe1593     O1598   2.108       .  S
Fe1593     O1605   2.108       .  S
Fe1593     O1594   2.026       .  S
Fe1593     O1602   1.956       .  S
O1594      C1601   1.264       .  A
O1595      C1609   1.276       .  A
O1596      C1601   1.281       .  A
O1597      C1600   1.258       .  A
O1598      C1610   1.276       .  A
O1599      C1612   1.264       .  A
C1600      O1605   1.273       .  A
C1600      C1788   1.443       .  S
C1601      C1774   1.431       .  S
O1603      C1606   1.273       .  A
C1606      C1785   1.443       .  S
O1607      C1612   1.281       .  A
O1608      C1610   1.262       .  A
C1609      O1611   1.262       .  A
C1609      C1778   1.431       .  S
C1612      C1775   1.431       .  S
Fe1613     O1629   2.033       .  S
Fe1613     O1619   2.109       .  S
Fe1613     O1626   2.109       .  S
Fe1613     O1618   2.033       .  S
Fe1613     O1624   1.948       .  S
Fe1614     O1617   2.033       .  S
Fe1614     O1621   2.108       .  S
Fe1614     O1625   2.026       .  S
Fe1614     O1630   2.108       .  S
Fe1614     O1624   1.956       .  S
Fe1615     O1633   2.108       .  S
Fe1615     O1620   2.033       .  S
Fe1615     O1627   2.026       .  S
Fe1615     O1616   2.108       .  S
Fe1615     O1624   1.956       .  S
O1616      C1623   1.273       .  A
O1617      C1631   1.262       .  A
O1618      C1623   1.258       .  A
O1619      C1622   1.281       .  A
O1620      C1632   1.262       .  A
O1621      C1634   1.273       .  A
C1622      O1627   1.264       .  A
C1622      C1771   1.430       .  S
C1623      C1769   1.443       .  S
O1625      C1628   1.264       .  A
O1626      C1628   1.281       .  A
C1628      C1766   1.430       .  S
O1629      C1634   1.258       .  A
O1630      C1632   1.276       .  A
C1631      O1633   1.276       .  A
C1634      C1768   1.443       .  S
Fe1635     O1651   2.033       .  S
Fe1635     O1641   2.109       .  S
Fe1635     O1648   2.109       .  S
Fe1635     O1646   1.948       .  S
Fe1636     O1639   2.033       .  S
Fe1636     O1643   2.109       .  S
Fe1636     O1647   2.026       .  S
Fe1636     O1652   2.108       .  S
Fe1636     O1646   1.956       .  S
Fe1637     O1655   2.108       .  S
Fe1637     O1649   2.026       .  S
Fe1637     O1646   1.956       .  S
O1638      C1645   1.273       .  A
O1639      C1653   1.262       .  A
O1640      C1645   1.258   1_554  A
O1641      C1644   1.281       .  A
O1643      C1656   1.273       .  A
C1644      O1649   1.264       .  A
C1644      C1761   1.430       .  S
C1645      C1767   1.443       .  S
O1647      C1650   1.264       .  A
O1648      C1650   1.281       .  A
C1650      C1764   1.430       .  S
O1651      C1656   1.258       .  A
O1652      C1654   1.276       .  A
C1653      O1655   1.276       .  A
C1653      C1781   1.432       .  S
C1656      C1770   1.443       .  S
Fe1657     O1673   2.110       .  S
Fe1657     O1663   2.033       .  S
Fe1657     O1670   2.033       .  S
Fe1657     O1662   2.110       .  S
Fe1657     O1668   1.948       .  S
Fe1658     O1661   2.107       .  S
Fe1658     O1665   2.026       .  S
Fe1658     O1669   2.108       .  S
Fe1658     O1674   2.033       .  S
Fe1658     O1668   1.956       .  S
Fe1659     O1677   2.032       .  S
Fe1659     O1664   2.108       .  S
Fe1659     O1671   2.108       .  S
Fe1659     O1660   2.026       .  S
Fe1659     O1668   1.956       .  S
O1660      C1667   1.264       .  A
O1661      C1675   1.276       .  A
O1662      C1667   1.281       .  A
O1663      C1666   1.258       .  A
O1664      C1676   1.276       .  A
O1665      C1678   1.264       .  A
C1666      O1671   1.273       .  A
C1666      C1759   1.443       .  S
C1667      C1754   1.431       .  S
O1669      C1672   1.273       .  A
O1670      C1672   1.258       .  A
C1672      C1757   1.443       .  S
O1673      C1678   1.281       .  A
O1674      C1676   1.262       .  A
C1675      O1677   1.262       .  A
C1678      C1756   1.431       .  S
Fe1679     O1695   2.110       .  S
Fe1679     O1685   2.033       .  S
Fe1679     O1692   2.033       .  S
Fe1679     O1684   2.109       .  S
Fe1679     O1690   1.948       .  S
Fe1680     O1683   2.107       .  S
Fe1680     O1687   2.026       .  S
Fe1680     O1691   2.108       .  S
Fe1680     O1696   2.032       .  S
Fe1680     O1690   1.956       .  S
Fe1681     O1699   2.033       .  S
Fe1681     O1686   2.108       .  S
Fe1681     O1682   2.026       .  S
Fe1681     O1690   1.956       .  S
O1682      C1689   1.264       .  A
O1683      C1697   1.276       .  A
O1684      C1689   1.281       .  A
O1686      C1698   1.276       .  A
O1687      C1700   1.264       .  A
C1688      O1693   1.273       .  A
C1688      C1758   1.442       .  S
C1689      C1752   1.431       .  S
O1691      C1694   1.273       .  A
O1692      C1694   1.258       .  A
C1694      C1760   1.443       .  S
O1695      C1700   1.281       .  A
O1696      C1698   1.262       .  A
C1697      O1699   1.262       .  A
C1698      C1772   1.431       .  S
C1700      C1749   1.431       .  S
Fe1701     O1717   2.033       .  S
Fe1701     O1707   2.109       .  S
Fe1701     O1714   2.109       .  S
Fe1701     O1706   2.033       .  S
Fe1701     O1712   1.948       .  S
Fe1702     O1705   2.033       .  S
Fe1702     O1709   2.108       .  S
Fe1702     O1713   2.026       .  S
Fe1702     O1718   2.108       .  S
Fe1702     O1712   1.956       .  S
Fe1703     O1721   2.108       .  S
Fe1703     O1708   2.033       .  S
Fe1703     O1715   2.026       .  S
Fe1703     O1704   2.108       .  S
Fe1703     O1712   1.956       .  S
O1704      C1711   1.273       .  A
O1705      C1719   1.262       .  A
O1706      C1711   1.258       .  A
O1707      C1710   1.281       .  A
O1708      C1720   1.262       .  A
O1709      C1722   1.273       .  A
C1710      O1715   1.264       .  A
C1710      C1789   1.430       .  S
C1711      C1745   1.443       .  S
O1713      C1716   1.264       .  A
O1714      C1716   1.281       .  A
C1716      C1777   1.430       .  S
O1717      C1722   1.258       .  A
O1718      C1720   1.276       .  A
C1719      O1721   1.276       .  A
C1722      C1747   1.443       .  S
Fe1723     O1739   2.033       .  S
Fe1723     O1729   2.109       .  S
Fe1723     O1736   2.109       .  S
Fe1723     O1728   2.033       .  S
Fe1723     O1734   1.948       .  S
Fe1724     O1727   2.033       .  S
Fe1724     O1735   2.026       .  S
Fe1724     O1740   2.108       .  S
Fe1724     O1734   1.956       .  S
Fe1725     O1743   2.108       .  S
Fe1725     O1730   2.033       .  S
Fe1725     O1737   2.026       .  S
Fe1725     O1726   2.109       .  S
Fe1725     O1734   1.956       .  S
O1726      C1733   1.273       .  A
O1727      C1741   1.262       .  A
O1728      C1733   1.258       .  A
O1729      C1732   1.281       .  A
O1730      C1742   1.262       .  A
O1731      C1744   1.273       .  A
C1732      O1737   1.264       .  A
C1732      C1780   1.430       .  S
C1733      C1748   1.443       .  S
O1735      C1738   1.264       .  A
O1736      C1738   1.281       .  A
C1738      C1791   1.430       .  S
O1740      C1742   1.276       .  A
C1741      O1743   1.276       .  A
C1742      C1753   1.431       .  S
C1744      C1746   1.443       .  S
C1745      C1746   1.211       .  T
C1747      C1748   1.211       .  T
C1749      C1750   1.204       .  T
C1751      C1752   1.204       .  T
C1753      C1754   1.204       .  T
C1755      C1756   1.204       .  T
C1757      C1758   1.211       .  T
C1759      C1760   1.211       .  T
C1761      C1762   1.204       .  T
C1763      C1764   1.204       .  T
C1765      C1766   1.204       .  T
C1767      C1768   1.211       .  T
C1769      C1770   1.211       .  T
C1771      C1772   1.204       .  T
C1773      C1774   1.204       .  T
C1775      C1776   1.204       .  T
C1777      C1778   1.204       .  T
C1779      C1780   1.204       .  T
C1781      C1782   1.204       .  T
C1783      C1784   1.204       .  T
C1785      C1786   1.211       .  T
C1787      C1788   1.211       .  T
C1789      C1790   1.204       .  T
C1791      C1792   1.204       .  T
