geometry optimzed in LAMMPS
_audit_creation_date              2020-12-01 
_audit_creation_method            'lammps2cif' 
_symmetry_space_group_name_H-M    'P1' 
_symmetry_Int_Tables_number       1 
_symmetry_cell_setting            triclinic 
loop_ 
_symmetry_equiv_pos_as_xyz 
  x,y,z 
_cell_length_a                    67.80486312 
_cell_length_b                    67.62502776520766 
_cell_length_c                    40.84266665249716 
_cell_angle_alpha                 90.04044030845694 
_cell_angle_beta                  90.0375789085693 
_cell_angle_gamma                 89.95254488317023 
loop_ 
_atom_site_label 
_atom_site_type_symbol 
_atom_site_fract_x 
_atom_site_fract_y 
_atom_site_fract_z 
_atom_site_charge 
O1          O  0.11681916  0.38140520  0.30633952    -0.57100
C2          C  0.06550589  0.38902568  0.25682338     0.75500
O3          O  0.12194138  0.41490229  0.21590902    -0.58300
C4          C  0.13522580  0.38104856  0.30123286     0.75500
C5          C  0.11012014  0.35653184  0.20147609     0.77900
Cd6        Cd  0.10758902  0.38787106  0.24890685     1.37500
O7          O  0.07663982  0.38185862  0.27871397    -0.57100
O8          O  0.10511879  0.35352855  0.23088849    -0.55900
C9          C  0.11812420  0.42811953  0.23695800     0.77800
O10         O  0.11498849  0.37408690  0.19445015    -0.58300
O11         O  0.07389169  0.39596212  0.23167426    -0.56800
O12         O  0.14062052  0.38239523  0.27167447    -0.56700
O13         O  0.10904823  0.42268415  0.26242527    -0.55900
O14         O  0.87250948  0.37791852  0.19398463    -0.57100
C15         C  0.86742501  0.43176778  0.23740868     0.75500
O16         O  0.86244415  0.38425925  0.30598392    -0.58300
C17         C  0.87262987  0.35979551  0.20164524     0.75500
C18         C  0.91669732  0.39113036  0.26352322     0.77900
Cd19       Cd  0.87488730  0.39077808  0.25026962     1.37500
O20         O  0.86338459  0.41878197  0.21601415    -0.57100
O21         O  0.90898291  0.40015158  0.23966162    -0.55900
C22         C  0.84446083  0.38737854  0.29923756     0.77800
O23         O  0.90496769  0.38179900  0.28206911    -0.58300
O24         O  0.87500105  0.42564858  0.26383016    -0.56800
O25         O  0.87270096  0.35593776  0.23196338    -0.56700
O26         O  0.84051004  0.39031505  0.26934859    -0.55900
O27         O  0.11949919  0.62955349  0.19107128    -0.57100
C28         C  0.11594357  0.57523146  0.23848810     0.75500
O29         O  0.12446743  0.62744230  0.29922405    -0.58300
C30         C  0.11276556  0.64674643  0.19625387     0.75500
C31         C  0.06872464  0.61634121  0.25857825     0.77900
Cd32       Cd  0.11046948  0.61681537  0.24602124     1.37500
O33         O  0.11768218  0.58677264  0.21418360    -0.57100
O34         O  0.07613399  0.60929684  0.23266042    -0.55900
C35         C  0.14212196  0.62295458  0.29215264     0.77800
O36         O  0.08071496  0.62354361  0.27924142    -0.58300
O37         O  0.11150307  0.58311741  0.26556835    -0.56800
O38         O  0.10604073  0.65022495  0.22454500    -0.56700
O39         O  0.14508986  0.61726596  0.26306842    -0.55900
O40         O  0.86665559  0.62121478  0.31044999    -0.57100
C41         C  0.91959590  0.62092670  0.26121350     0.75500
O42         O  0.86302753  0.59314690  0.21989419    -0.58300
C43         C  0.84869672  0.62480941  0.30444921     0.75500
C44         C  0.87727136  0.65254539  0.20561508     0.77900
Cd45       Cd  0.87746283  0.62069932  0.25265581     1.37500
O46         O  0.90847037  0.62926445  0.28207528    -0.57100
O47         O  0.88252157  0.65496854  0.23508250    -0.55900
C48         C  0.87145165  0.57979925  0.23665945     0.77800
O49         O  0.87035746  0.63569753  0.19829567    -0.58300
O50         O  0.91104468  0.61238952  0.23758995    -0.56800
O51         O  0.84429969  0.62780119  0.27476144    -0.56700
O52         O  0.88217462  0.58557688  0.26007294    -0.55900
O53         O  0.36479550  0.08394015  0.29980771    -0.57100
C54         C  0.37038670  0.14453103  0.31852998     0.75500
O55         O  0.40272984  0.12141814  0.23208693    -0.58300
C56         C  0.37419277  0.07203305  0.28163531     0.75500
C57         C  0.34294303  0.11800113  0.21963681     0.77900
Cd58       Cd  0.37419829  0.11419788  0.26856478     1.37500
O59         O  0.36863786  0.12634763  0.32541330    -0.57100
O60         O  0.33931332  0.11369870  0.24917611    -0.55900
C61         C  0.41529372  0.12196497  0.25507425     0.77800
O62         O  0.36082710  0.12162377  0.21310776    -0.58300
O63         O  0.37226883  0.14853724  0.28842468    -0.56800
O64         O  0.38365956  0.07968085  0.25820708    -0.56700
O65         O  0.40888220  0.11855191  0.28356822    -0.55900
O66         O  0.36836603  0.87609794  0.18711565    -0.57100
C67         C  0.42243368  0.88433920  0.22951757     0.75500
O68         O  0.37282391  0.90984115  0.28292804    -0.58300
C69         C  0.35046829  0.88007312  0.19301595     0.75500
C70         C  0.37806055  0.84931016  0.28859153     0.77900
Cd71       Cd  0.38066102  0.88278270  0.24345062     1.37500
O72         O  0.41018723  0.87905558  0.20776236    -0.57100
O73         O  0.38499444  0.84762044  0.25996515    -0.55900
C74         C  0.37563393  0.92363496  0.26246396     0.77800
O75         O  0.37128578  0.86623554  0.29565430    -0.58300
O76         O  0.41523843  0.88859471  0.25719557    -0.56800
O77         O  0.34640091  0.88391174  0.22257526    -0.56700
O78         O  0.38078769  0.91840326  0.23401770    -0.55900
O79         O  0.61894326  0.13177221  0.19825690    -0.57100
C80         C  0.56374108  0.12966140  0.24909361     0.75500
O81         O  0.61526013  0.09678923  0.28877754    -0.58300
C82         C  0.63655424  0.12678450  0.20483449     0.75500
C83         C  0.61088440  0.15862449  0.29991124     0.77900
Cd84       Cd  0.60596013  0.12593585  0.25488135     1.37500
O85         O  0.57467821  0.13158242  0.22403840    -0.57100
O86         O  0.60673450  0.16139578  0.27002640    -0.55900
C87         C  0.60679997  0.08427053  0.27037888     0.77800
O88         O  0.61470066  0.14094184  0.30808148    -0.58300
O89         O  0.57255896  0.12650160  0.27584525    -0.56800
O90         O  0.63986324  0.12255544  0.23449512    -0.56700
O91         O  0.59798123  0.09111824  0.24556167    -0.55900
O92         O  0.62110992  0.92341108  0.28010517    -0.57100
C93         C  0.61649544  0.86393042  0.29883709     0.75500
O94         O  0.58411185  0.88453305  0.21014455    -0.58300
C95         C  0.61207170  0.93545088  0.26165473     0.75500
C96         C  0.64309239  0.89193341  0.20106455     0.77900
Cd97       Cd  0.61151469  0.89354347  0.24841173     1.37500
O98         O  0.61185501  0.88159934  0.30543572    -0.57100
O99         O  0.64517443  0.89948268  0.22920339    -0.55900
C100        C  0.57078531  0.88651704  0.23164953     0.77800
O101        O  0.62657937  0.88390973  0.19515821    -0.58300
O102        O  0.62033859  0.86038020  0.26909255    -0.56800
O103        O  0.60272889  0.92794429  0.23789648    -0.56700
O104        O  0.57643264  0.89160299  0.25988906    -0.55900
C105        C  0.38750441  0.29125577  0.49798212     0.87200
C106        C  0.38235030  0.27910142  0.52902186    -0.53100
C107        C  0.39332241  0.26217012  0.53356977     0.10100
C108        C  0.40841886  0.25890847  0.50560374     0.21100
C109        C  0.40978510  0.29485817  0.50007737    -0.53800
C110        C  0.42074172  0.27810133  0.50408393     0.10200
C111        C  0.38487153  0.27580554  0.47061562    -0.53300
C112        C  0.39564861  0.25894830  0.47423163     0.10800
H113        H  0.37026291  0.28316385  0.54507203     0.15300
H114        H  0.41777053  0.24557506  0.50848123     0.01000
H115        H  0.41637605  0.30944548  0.49824207     0.15600
H116        H  0.37364498  0.27673886  0.45181163     0.15400
C117        C  0.60581895  0.28941913  0.51626429     0.87200
C118        C  0.60955918  0.27931920  0.48297673    -0.53100
C119        C  0.59838237  0.26300869  0.47700206     0.10100
C120        C  0.58442959  0.25768702  0.50541053     0.21100
C121        C  0.58335133  0.29284849  0.51786384    -0.53800
C122        C  0.57187721  0.27647074  0.51177621     0.10200
C123        C  0.60957170  0.27224493  0.54051359    -0.53300
C124        C  0.59809397  0.25586169  0.53555237     0.10800
H125        H  0.62069989  0.28429125  0.46577691     0.15300
H126        H  0.57575091  0.24417264  0.50018272     0.01000
H127        H  0.57720511  0.30717573  0.52409705     0.15600
H128        H  0.62086704  0.27216048  0.55920032     0.15400
C129        C  0.28093043  0.60813086  0.49310742     0.87200
C130        C  0.26581232  0.61292404  0.52040659    -0.53100
C131        C  0.24810660  0.60312161  0.51844894     0.10100
C132        C  0.24753767  0.58882148  0.48891106     0.21100
C133        C  0.28335969  0.58574441  0.49428907    -0.53800
C134        C  0.26613139  0.57554693  0.49223976     0.10200
C135        C  0.26892917  0.61225228  0.46155675    -0.53300
C136        C  0.25143123  0.60223708  0.45919461     0.10800
H137        H  0.26882702  0.62360191  0.53951183     0.15300
H138        H  0.23360706  0.58063732  0.48624964     0.01000
H139        H  0.29757557  0.57849685  0.49693344     0.15600
H140        H  0.27322528  0.62307134  0.44340010     0.15400
C141        C  0.27377273  0.39087309  0.49706119     0.87200
C142        C  0.25937720  0.38586597  0.46972259    -0.53100
C143        C  0.24255609  0.39665752  0.47001185     0.10100
C144        C  0.24143242  0.41210607  0.49797789     0.21100
C145        C  0.27705059  0.41350091  0.49443545    -0.53800
C146        C  0.26021154  0.42481158  0.49506087     0.10200
C147        C  0.26151963  0.38919557  0.52901756    -0.53300
C148        C  0.24441174  0.40016073  0.52973569     0.10800
H149        H  0.26211334  0.37434017  0.45172360     0.15300
H150        H  0.22795819  0.42113637  0.49812087     0.01000
H151        H  0.29150847  0.42021895  0.49420506     0.15600
H152        H  0.26612279  0.38009818  0.54944529     0.15400
C153        C  0.60252846  0.72442522  0.49007026     0.87200
C154        C  0.60769802  0.73633833  0.52113318    -0.53100
C155        C  0.59641670  0.75281909  0.52670041     0.10100
C156        C  0.58110345  0.75640947  0.49940679     0.21100
C157        C  0.58014420  0.72058630  0.49209828    -0.53800
C158        C  0.56898633  0.73710702  0.49738738     0.10200
C159        C  0.60349753  0.73967500  0.46200510    -0.53300
C160        C  0.59334123  0.75681099  0.46754561     0.10800
H161        H  0.61975039  0.73208546  0.53711835     0.15300
H162        H  0.57174188  0.76965388  0.50336167     0.01000
H163        H  0.57351551  0.70615590  0.48850470     0.15600
H164        H  0.61032521  0.73754431  0.43913095     0.15400
C165        C  0.38586747  0.71651266  0.50324723     0.87200
C166        C  0.38199377  0.72622009  0.46967737    -0.53100
C167        C  0.39130562  0.74384390  0.46454589     0.10100
C168        C  0.40423066  0.75029969  0.49361137     0.21100
C169        C  0.40867989  0.71537092  0.50574643    -0.53800
C170        C  0.41846343  0.73283314  0.49984001     0.10200
C171        C  0.38136494  0.73266382  0.52894736    -0.53300
C172        C  0.39050005  0.75034638  0.52366605     0.10800
H173        H  0.37255550  0.71946448  0.45133330     0.15300
H174        H  0.41146517  0.76472689  0.48919638     0.01000
H175        H  0.41679248  0.70276535  0.51465842     0.15600
H176        H  0.37236233  0.73009981  0.55050517     0.15400
C177        C  0.71219305  0.39782911  0.50815594     0.87200
C178        C  0.72820212  0.39405660  0.53398525    -0.53100
C179        C  0.74436079  0.40617521  0.53242993     0.10100
C180        C  0.74328014  0.42085927  0.50354158     0.21100
C181        C  0.70765948  0.42033638  0.51039457    -0.53800
C182        C  0.72389587  0.43239077  0.50821947     0.10200
C183        C  0.72317971  0.39645104  0.47513165    -0.53300
C184        C  0.73972831  0.40785878  0.47315614     0.10800
H185        H  0.72682788  0.38231945  0.55196606     0.15300
H186        H  0.75613028  0.43082938  0.50108096     0.01000
H187        H  0.69292004  0.42644592  0.51156462     0.15600
H188        H  0.71872274  0.38693295  0.45507335     0.15400
C189        C  0.70908579  0.61651497  0.50106230     0.87200
C190        C  0.72400706  0.62162866  0.47428718    -0.53100
C191        C  0.74139145  0.61170488  0.47590776     0.10100
C192        C  0.74244215  0.59694385  0.50461386     0.21100
C193        C  0.70675816  0.59382638  0.49913004    -0.53800
C194        C  0.72412043  0.58350892  0.50057881     0.10200
C195        C  0.72029240  0.61907119  0.53378586    -0.53300
C196        C  0.73803557  0.60932439  0.53582956     0.10800
H197        H  0.72103496  0.63258806  0.45546707     0.15300
H198        H  0.75661515  0.58876407  0.50524807     0.01000
H199        H  0.69282292  0.58609871  0.49963200     0.15600
H200        H  0.71414627  0.62755962  0.55384844     0.15400
O201        O  0.36234951  0.11690798  0.80245723    -0.57100
C202        C  0.41529558  0.11793025  0.75526245     0.75500
O203        O  0.36519812  0.09741595  0.69990897    -0.58300
C204        C  0.34469367  0.12242270  0.79822052     0.75500
C205        C  0.37158123  0.15721938  0.70772042     0.77900
Cd206      Cd  0.37307499  0.12108027  0.74531853     1.37500
O207        O  0.40413266  0.12443204  0.77768939    -0.57100
O208        O  0.37874240  0.15656868  0.73632473    -0.55900
C209        C  0.36383113  0.08259892  0.71873348     0.77800
O210        O  0.36378667  0.14139678  0.69724324    -0.58300
O211        O  0.40686582  0.11264578  0.72908852    -0.56800
O212        O  0.34039063  0.12894465  0.77002853    -0.56700
O213        O  0.36600085  0.08589624  0.74894079    -0.55900
O214        O  0.38086513  0.88200737  0.67794166    -0.57100
C215        C  0.37763939  0.93674293  0.71637657     0.75500
O216        O  0.36840864  0.89663179  0.78987700    -0.58300
C217        C  0.38012895  0.86399225  0.68626749     0.75500
C218        C  0.42298728  0.89077859  0.75237882     0.77900
Cd219      Cd  0.38217666  0.89563553  0.73400849     1.37500
O220        O  0.37211056  0.92310296  0.69721095    -0.57100
O221        O  0.41793127  0.89776397  0.72493797    -0.55900
C222        C  0.35054376  0.89451235  0.78167055     0.77800
O223        O  0.40921269  0.88603530  0.77173965    -0.58300
O224        O  0.38550859  0.93103493  0.74274981    -0.56800
O225        O  0.37905694  0.86063273  0.71674348    -0.56700
O226        O  0.34726498  0.89157186  0.75152255    -0.55900
O227        O  0.61132784  0.08203971  0.71153216    -0.57100
C228        C  0.60703881  0.14241947  0.69807954     0.75500
O229        O  0.57632642  0.11745655  0.78106778    -0.58300
C230        C  0.60991371  0.06979120  0.73496629     0.75500
C231        C  0.63887336  0.11624950  0.79231353     0.77900
Cd232      Cd  0.60622093  0.11135706  0.74685329     1.37500
O233        O  0.61774405  0.12716678  0.69494533    -0.57100
O234        O  0.64084443  0.10866449  0.76423734    -0.55900
C235        C  0.56444696  0.10975018  0.76061847     0.77800
O236        O  0.62192693  0.12308932  0.79914799    -0.58300
O237        O  0.59688677  0.14355974  0.72392057    -0.56800
O238        O  0.60694437  0.07701477  0.76310993    -0.56700
O239        O  0.57209448  0.10251927  0.73503974    -0.55900
O240        O  0.62600770  0.87826016  0.81582094    -0.57100
C241        C  0.57016685  0.88403529  0.77355416     0.75500
O242        O  0.61926695  0.90845276  0.71973259    -0.58300
C243        C  0.64377118  0.88040952  0.80684186     0.75500
C244        C  0.61301983  0.84811525  0.71669509     0.77900
Cd245      Cd  0.61182031  0.88183858  0.76001754     1.37500
O246        O  0.58192909  0.87750964  0.79518139    -0.57100
O247        O  0.60685867  0.84663900  0.74583636    -0.55900
C248        C  0.61760227  0.92220900  0.74066290     0.77800
O249        O  0.61985981  0.86477336  0.70831249    -0.58300
O250        O  0.57784065  0.88898136  0.74657897    -0.56800
O251        O  0.64657012  0.88153133  0.77629416    -0.56700
O252        O  0.61301523  0.91712726  0.76943094    -0.55900
O253        O  0.13053843  0.41690949  0.80343806    -0.57100
C254        C  0.12269683  0.35643487  0.81864449     0.75500
O255        O  0.09181245  0.38177941  0.73076104    -0.58300
C256        C  0.12076259  0.42944429  0.78698717     0.75500
C257        C  0.14960829  0.38807085  0.72175126     0.77900
Cd258      Cd  0.11896207  0.38814360  0.77066252     1.37500
O259        O  0.11742505  0.37375941  0.82635346    -0.57100
O260        O  0.15205072  0.39578253  0.74969944    -0.55900
C261        C  0.07820007  0.38423598  0.75161947     0.77800
O262        O  0.13346667  0.37905561  0.71705363    -0.58300
O263        O  0.12762110  0.35416715  0.78899938    -0.56800
O264        O  0.11030688  0.42267144  0.76394815    -0.56700
O265        O  0.08357481  0.38830611  0.78046286    -0.55900
O266        O  0.87249918  0.38427134  0.69059421    -0.57100
C267        C  0.93001959  0.38976631  0.73508821     0.75500
O268        O  0.88065338  0.42039333  0.78133735    -0.58300
C269        C  0.85529157  0.38966057  0.69897050     0.75500
C270        C  0.88340569  0.35992713  0.79162643     0.77900
Cd271      Cd  0.88771992  0.39180177  0.74529252     1.37500
O272        O  0.91823174  0.38620336  0.71163900    -0.57100
O273        O  0.88834044  0.35689886  0.76216327    -0.55900
C274        C  0.88484347  0.43340743  0.76013419     0.77800
O275        O  0.87915393  0.37755787  0.79937189    -0.58300
O276        O  0.92210614  0.39399089  0.76221026    -0.56800
O277        O  0.85306249  0.39441858  0.72867204    -0.56700
O278        O  0.89057365  0.42701624  0.73261005    -0.55900
O279        O  0.12592837  0.61852946  0.68780303    -0.57100
C280        C  0.07142435  0.61528350  0.72993891     0.75500
O281        O  0.12495658  0.59053980  0.78279099    -0.58300
C282        C  0.14379355  0.62149558  0.69522060     0.75500
C283        C  0.11208062  0.64783703  0.79211501     0.77900
Cd284      Cd  0.11317679  0.61622937  0.74438390     1.37500
O285        O  0.08362023  0.62318972  0.71041610    -0.57100
O286        O  0.10607523  0.65005462  0.76301164    -0.55900
C287        C  0.12058421  0.57622357  0.76417963     0.77800
O288        O  0.11973513  0.63119522  0.79837662    -0.58300
O289        O  0.07874691  0.60750491  0.75534912    -0.56800
O290        O  0.14737013  0.62332453  0.72547489    -0.56700
O291        O  0.11294834  0.58062474  0.73689939    -0.55900
O292        O  0.87102961  0.59392333  0.78382732    -0.57100
C293        C  0.87736061  0.65311418  0.79884440     0.75500
O294        O  0.91015419  0.62647772  0.71348274    -0.58300
C295        C  0.87596966  0.58114110  0.76267029     0.75500
C296        C  0.84846646  0.62525789  0.70356509     0.77900
Cd297      Cd  0.88076471  0.62243777  0.74974378     1.37500
O298        O  0.87615301  0.63493071  0.80585509    -0.57100
O299        O  0.84631194  0.61966318  0.73286276    -0.55900
C300        C  0.92264233  0.62356929  0.73610674     0.77800
O301        O  0.86560390  0.63121166  0.69595295    -0.58300
O302        O  0.87896382  0.65728673  0.76871402    -0.56800
O303        O  0.88344194  0.58751043  0.73637774    -0.56700
O304        O  0.91571616  0.62038646  0.76432823    -0.55900
C305        C  0.21477658  0.89242460  0.98741230     0.87200
C306        C  0.22769675  0.88792444  0.01756537    -0.53100
C307        C  0.24445136  0.89885654  0.01996113     0.10100
C308        C  0.24738422  0.91326284  0.99123162     0.21100
C309        C  0.21153791  0.91494359  0.98785171    -0.53800
C310        C  0.22843215  0.92606916  0.99022960     0.10200
C311        C  0.22941954  0.88892804  0.95888285    -0.53300
C312        C  0.24631656  0.90001039  0.96048785     0.10800
H313        H  0.22449810  0.87624534  0.03496273     0.15300
H314        H  0.26127174  0.92184104  0.99324816     0.01000
H315        H  0.19693715  0.92145326  0.98618562     0.15600
H316        H  0.22713452  0.87829091  0.93938896     0.15400
C317        C  0.21049845  0.11036582  0.00750368     0.87200
C318        C  0.22470089  0.11477817  0.97889226    -0.53100
C319        C  0.24225860  0.10461685  0.97913788     0.10100
C320        C  0.24427023  0.09128014  0.00970527     0.21100
C321        C  0.20871055  0.08743198  0.00804210    -0.53800
C322        C  0.22630315  0.07736415  0.00821427     0.10200
C323        C  0.22266814  0.11434279  0.03846971    -0.53300
C324        C  0.24039023  0.10501878  0.03954994     0.10800
H325        H  0.22100839  0.12549333  0.96009593     0.15300
H326        H  0.25820783  0.08295307  0.01085391     0.01000
H327        H  0.19517661  0.07928136  0.01063768     0.15600
H328        H  0.21775865  0.12402695  0.05808371     0.15400
C329        C  0.88197328  0.22350023  0.99728715     0.87200
C330        C  0.88007417  0.23765020  0.96746248    -0.53100
C331        C  0.89158406  0.25433641  0.96890557     0.10100
C332        C  0.90369435  0.25550718  0.00082091     0.21100
C333        C  0.90415776  0.21961950  0.00108996    -0.53800
C334        C  0.91593634  0.23612480  0.00176048     0.10200
C335        C  0.87672710  0.23713824  0.02602022    -0.53300
C336        C  0.88815534  0.25354895  0.02859595     0.10800
H337        H  0.86950915  0.23569577  0.94785514     0.15300
H338        H  0.91271705  0.26899525  0.00192808     0.01000
H339        H  0.90992299  0.20471028  0.00325701     0.15600
H340        H  0.86471909  0.23423525  0.04293991     0.15400
C341        C  0.09939770  0.21344373  0.00995933     0.87200
C342        C  0.10243708  0.22728429  0.03973169    -0.53100
C343        C  0.09189224  0.24451623  0.03877518     0.10100
C344        C  0.07910553  0.24639962  0.00788869     0.21100
C345        C  0.07718273  0.21023795  0.00779485    -0.53800
C346        C  0.06645183  0.22723594  0.00660746     0.10200
C347        C  0.10433007  0.22717926  0.98073705    -0.53300
C348        C  0.09424314  0.24478928  0.97968659     0.10800
H349        H  0.11312754  0.22457858  0.05888392     0.15300
H350        H  0.07044459  0.26019575  0.00800586     0.01000
H351        H  0.07044222  0.19567545  0.00727234     0.15600
H352        H  0.11552483  0.22344196  0.96290787     0.15400
C353        C  0.88962280  0.78925708  0.00303591     0.87200
C354        C  0.88693535  0.77452154  0.03157933    -0.53100
C355        C  0.89774170  0.75732185  0.02956877     0.10100
C356        C  0.90991911  0.75632496  0.99778381     0.21100
C357        C  0.91235234  0.79207893  0.00034959    -0.53800
C358        C  0.92300749  0.77484925  0.99843426     0.10200
C359        C  0.88495794  0.77716551  0.97218277    -0.53300
C360        C  0.89493706  0.75983473  0.96976208     0.10800
H361        H  0.87670341  0.77748026  0.05140021     0.15300
H362        H  0.91886769  0.74287917  0.99514522     0.01000
H363        H  0.91984552  0.80604155  0.99797384     0.15600
H364        H  0.87401190  0.78156195  0.95415924     0.15400
C365        C  0.10711113  0.78549940  0.99561848     0.87200
C366        C  0.10890913  0.77292270  0.96446940    -0.53100
C367        C  0.09858422  0.75559614  0.96461178     0.10100
C368        C  0.08639522  0.75269812  0.99617749     0.21100
C369        C  0.08461874  0.78866353  0.99972290    -0.53800
C370        C  0.07369942  0.77159157  0.99914238     0.10200
C371        C  0.11168886  0.77142438  0.02440785    -0.53300
C372        C  0.10135365  0.75413853  0.02440043     0.10800
H373        H  0.11767475  0.77769724  0.94371052     0.15300
H374        H  0.07778188  0.73878056  0.99692109     0.01000
H375        H  0.07755478  0.80269741  0.00443047     0.15600
H376        H  0.12216033  0.77496170  0.04364648     0.15400
C377        C  0.78291907  0.89764634  0.00443368     0.87200
C378        C  0.77136044  0.89354646  0.97265778    -0.53100
C379        C  0.75455186  0.90434059  0.96899695     0.10100
C380        C  0.75032890  0.91835661  0.99784948     0.21100
C381        C  0.78589348  0.92028889  0.00531873    -0.53800
C382        C  0.76894932  0.93131498  0.00171436     0.10200
C383        C  0.76703922  0.89357050  0.03079371    -0.53300
C384        C  0.75024149  0.90470583  0.02808775     0.10800
H385        H  0.77538454  0.88204679  0.95532730     0.15300
H386        H  0.73659155  0.92699069  0.99440990     0.01000
H387        H  0.80027567  0.92691223  0.00920757     0.15600
H388        H  0.76805086  0.88209662  0.04915315     0.15400
C389        C  0.77360832  0.11669048  0.00090552     0.87200
C390        C  0.76037860  0.11972064  0.03116549    -0.53100
C391        C  0.74346347  0.10870870  0.03160401     0.10100
C392        C  0.74129097  0.09502222  0.00154191     0.21100
C393        C  0.77709230  0.09405350  0.99904857    -0.53800
C394        C  0.76044368  0.08268074  0.00041312     0.10200
C395        C  0.75971988  0.11997859  0.97145478    -0.53300
C396        C  0.74275831  0.10895982  0.97163414     0.10800
H397        H  0.76394040  0.13020440  0.05044057     0.15300
H398        H  0.72774038  0.08584516  0.00193263     0.01000
H399        H  0.79101155  0.08703726  0.99377417     0.15600
H400        H  0.76320935  0.12999572  0.95154735     0.15400
C401        C  0.75318875  0.98519719  0.01958427    -0.04800
C402        C  0.76682781  0.99611175  0.00101953     0.09400
C403        C  0.78144629  0.98596738  0.98312066    -0.02200
C404        C  0.78222294  0.96500021  0.98330191    -0.00400
C405        C  0.76843659  0.95377740  0.00187085    -0.04000
C406        C  0.75389116  0.96428671  0.02007561     0.03000
C407        C  0.76551617  0.01836531  0.00029699     0.09800
C408        C  0.79573451  0.99721962  0.96442170     0.35700
C409        C  0.73952509  0.95411779  0.04011228     0.39100
C410        C  0.77504400  0.02977644  0.02448251    -0.04400
C411        C  0.77311688  0.05060928  0.02468621     0.02800
C412        C  0.76149608  0.06039039  0.00070608    -0.04000
C413        C  0.75139806  0.04877897  0.97717059    -0.00200
C414        C  0.75355731  0.02793338  0.97685773    -0.02800
C415        C  0.78635962  0.01994319  0.04985245     0.36500
C416        C  0.73868051  0.05796128  0.95310329     0.40100
C417        C  0.78201421  0.06183014  0.05112748     0.39200
C418        C  0.74320741  0.01617092  0.95260899     0.36100
C419        C  0.73838684  0.99567161  0.03858479     0.36800
C420        C  0.79686646  0.95520984  0.96315865     0.40100
N421        N  0.78889743  0.07068737  0.07251961    -0.38000
N422        N  0.79525751  0.01206206  0.07021579    -0.39600
N423        N  0.72814245  0.06455008  0.93367697    -0.37300
N424        N  0.73494011  0.00675154  0.93333040    -0.39700
N425        N  0.80717128  0.00620540  0.94959293    -0.39500
N426        N  0.80873984  0.94770248  0.94704322    -0.37100
N427        N  0.72740185  0.94710412  0.05626392    -0.38200
N428        N  0.72664931  0.00402699  0.05381771    -0.39800
C429        C  0.82974545  0.86833499  0.97773272    -0.04800
C430        C  0.83393133  0.85712337  0.00588028     0.09400
C431        C  0.82425550  0.86177069  0.03533073    -0.02200
C432        C  0.80928560  0.87635343  0.03611310    -0.00400
C433        C  0.80259232  0.88554601  0.00664606    -0.04000
C434        C  0.81466338  0.88286050  0.97827898     0.03000
C435        C  0.84839239  0.84021914  0.00484233     0.09800
C436        C  0.82980603  0.85138000  0.06507520     0.35700
C437        C  0.81196093  0.89508454  0.94945487     0.39100
C438        C  0.86865920  0.84345809  0.00983717    -0.04400
C439        C  0.88193742  0.82731222  0.01256126     0.02800
C440        C  0.87549147  0.80752659  0.00633958    -0.04000
C441        C  0.85464045  0.80457096  0.00328015    -0.00200
C442        C  0.84141467  0.82073006  0.00229731    -0.02800
C443        C  0.87581201  0.86361065  0.01278263     0.36500
C444        C  0.84625569  0.78484478  0.00210338     0.40100
C445        C  0.90113007  0.83153239  0.02631282     0.39200
C446        C  0.82036511  0.81733954  0.99870018     0.36100
C447        C  0.84077600  0.86457855  0.94794867     0.36800
C448        C  0.80264168  0.88280974  0.06800676     0.40100
N449        N  0.91616435  0.83569492  0.03784354    -0.38000
N450        N  0.88153893  0.87968346  0.01475807    -0.39600
N451        N  0.83913518  0.76931753  0.00112573    -0.37300
N452        N  0.80358216  0.81472731  0.99590521    -0.39700
N453        N  0.83424723  0.84304522  0.08869726    -0.39500
N454        N  0.79801802  0.88724089  0.09425510    -0.37100
N455        N  0.80988935  0.90457667  0.92613833    -0.38200
N456        N  0.84962300  0.86152576  0.92425426    -0.39800
C457        C  0.97702844  0.78454731  0.02261426    -0.04800
C458        C  0.98742709  0.77352632  0.99895870     0.09400
C459        C  0.97684389  0.76266637  0.97536622    -0.02200
C460        C  0.95599617  0.76263254  0.97547334    -0.00400
C461        C  0.94531237  0.77416481  0.99857925    -0.04000
C462        C  0.95615613  0.78469137  0.02275999     0.03000
C463        C  0.00959858  0.77298383  0.99920775     0.09800
C464        C  0.98752897  0.75146239  0.95072479     0.35700
C465        C  0.94603752  0.79458487  0.04940045     0.39100
C466        C  0.01978567  0.76124247  0.02225708    -0.04400
C467        C  0.04064911  0.76091509  0.02273599     0.02800
C468        C  0.05154949  0.77174785  0.99926235    -0.04000
C469        C  0.04118104  0.78256297  0.97499690    -0.00200
C470        C  0.02039472  0.78370683  0.97569156    -0.02800
C471        C  0.00870488  0.74926615  0.04525961     0.36500
C472        C  0.05173591  0.79118180  0.94763648     0.40100
C473        C  0.05063356  0.74950789  0.04773784     0.39200
C474        C  0.01000812  0.79586470  0.95203980     0.36100
C475        C  0.98794776  0.79586691  0.04676002     0.36800
C476        C  0.94609465  0.74988120  0.95227777     0.40100
N477        N  0.05796393  0.74015934  0.06809502    -0.38000
N478        N  0.99983816  0.73966546  0.06349261    -0.39600
N479        N  0.06002019  0.79769748  0.92536120    -0.37300
N480        N  0.00161009  0.80556720  0.93331495    -0.39700
N481        N  0.99598947  0.74269624  0.93084276    -0.39500
N482        N  0.93934386  0.73872414  0.93396914    -0.37100
N483        N  0.93829489  0.80237381  0.07110819    -0.38200
N484        N  0.99679073  0.80487566  0.06587224    -0.39800
C485        C  0.85172488  0.17858627  0.02859658    -0.04800
C486        C  0.84127850  0.17291967  0.00025200     0.09400
C487        C  0.84681378  0.18098819  0.96987027    -0.02200
C488        C  0.86162812  0.19562033  0.96809132    -0.00400
C489        C  0.86969392  0.20401521  0.99711857    -0.04000
C490        C  0.86631937  0.19351033  0.02688138     0.03000
C491        C  0.82439681  0.15850050  0.00202574     0.09800
C492        C  0.83715502  0.17416583  0.94019708     0.35700
C493        C  0.87836606  0.19735504  0.05557817     0.39100
C494        C  0.80497469  0.16531256  0.99834940    -0.04400
C495        C  0.78901694  0.15186733  0.99713055     0.02800
C496        C  0.79190376  0.13102424  0.00172051    -0.04000
C497        C  0.81170182  0.12479620  0.00895750    -0.00200
C498        C  0.82773334  0.13818542  0.00656766    -0.02800
C499        C  0.80148875  0.18644912  0.99520409     0.36500
C500        C  0.81630424  0.10546592  0.02203236     0.40100
C501        C  0.76982650  0.16013807  0.98979034     0.39200
C502        C  0.84790215  0.13100118  0.00855684     0.36100
C503        C  0.84706894  0.16942523  0.05974536     0.36800
C504        C  0.87024543  0.19936658  0.93635824     0.40100
N505        N  0.75512515  0.16751859  0.98224340    -0.38000
N506        N  0.79884147  0.20328851  0.99269206    -0.39600
N507        N  0.82093186  0.09027657  0.03260938    -0.37300
N508        N  0.86397074  0.12526539  0.00982893    -0.39700
N509        N  0.82930812  0.16885848  0.91660999    -0.39500
N510        N  0.87674668  0.20136232  0.91041421    -0.37100
N511        N  0.88809109  0.20025408  0.07838021    -0.38200
N512        N  0.84335205  0.16209743  0.08458251    -0.39800
C513        C  0.01391273  0.23179150  0.97409187    -0.04800
C514        C  0.00261094  0.22832029  0.00262770     0.09400
C515        C  0.01237494  0.22271046  0.03180348    -0.02200
C516        C  0.03321124  0.22216552  0.03307030    -0.00400
C517        C  0.04444497  0.22679290  0.00497798    -0.04000
C518        C  0.03466157  0.22993931  0.97496533     0.03000
C519        C  0.98047369  0.23055442  0.00200004     0.09800
C520        C  0.00093447  0.21743990  0.06048288     0.35700
C521        C  0.04585960  0.22999301  0.94472719     0.39100
C522        C  0.96865766  0.21714799  0.98433171    -0.04400
C523        C  0.94799191  0.21979381  0.98254429     0.02800
C524        C  0.93838151  0.23486162  0.00117157    -0.04000
C525        C  0.95053355  0.24836267  0.01887225    -0.00200
C526        C  0.97134378  0.24637263  0.01863488    -0.02800
C527        C  0.97781476  0.20038358  0.96810843     0.36500
C528        C  0.94224397  0.26458933  0.03748028     0.40100
C529        C  0.93701807  0.20747715  0.95981242     0.39200
C530        C  0.98354254  0.26079370  0.03552506     0.36100
C531        C  0.00424243  0.23765643  0.94395225     0.36800
C532        C  0.04312410  0.21674427  0.06325266     0.40100
N533        N  0.92837522  0.19753484  0.94173373    -0.38000
N534        N  0.98509632  0.18698830  0.95524348    -0.39600
N535        N  0.93642440  0.27806410  0.05206996    -0.37300
N536        N  0.99328014  0.27225776  0.04899246    -0.39700
N537        N  0.99175010  0.21321434  0.08329960    -0.39500
N538        N  0.05108979  0.21244418  0.08728711    -0.37100
N539        N  0.05480525  0.22981648  0.92060332    -0.38200
N540        N  0.99650100  0.24240780  0.91995059    -0.39800
C541        C  0.13120302  0.16955741  0.97987117    -0.04800
C542        C  0.14051286  0.16349635  0.00909275     0.09400
C543        C  0.13313289  0.17042167  0.03924906    -0.02200
C544        C  0.11803379  0.18486068  0.03999246    -0.00400
C545        C  0.11130335  0.19377198  0.01041689    -0.04000
C546        C  0.11600955  0.18385733  0.98070820     0.03000
C547        C  0.15798907  0.14975104  0.00814082     0.09800
C548        C  0.14119594  0.16268764  0.06956655     0.35700
C549        C  0.10465206  0.18755174  0.95121147     0.39100
C550        C  0.17707855  0.15725003  0.01302761    -0.04400
C551        C  0.19370203  0.14465764  0.01125604     0.02800
C552        C  0.19161874  0.12380086  0.00587652    -0.04000
C553        C  0.17216700  0.11681642  0.99846905    -0.00200
C554        C  0.15559599  0.12956097  0.00092799    -0.02800
C555        C  0.17958340  0.17816903  0.02004518     0.36500
C556        C  0.16851374  0.09739645  0.98498877     0.40100
C557        C  0.21302101  0.15372661  0.01429371     0.39200
C558        C  0.13581351  0.12189508  0.99580269     0.36100
C559        C  0.13759282  0.16144203  0.94875684     0.36800
C560        C  0.10820243  0.18874318  0.07085848     0.40100
N561        N  0.22825927  0.16125635  0.01687401    -0.38000
N562        N  0.18147085  0.19480965  0.02588713    -0.39600
N563        N  0.16450227  0.08213389  0.97401732    -0.37300
N564        N  0.12005147  0.11582263  0.99169692    -0.39700
N565        N  0.14772822  0.15654782  0.09369388    -0.39500
N566        N  0.10037875  0.19168880  0.09557174    -0.37100
N567        N  0.09552836  0.19047655  0.92774579    -0.38200
N568        N  0.14266792  0.15496185  0.92391957    -0.39800
C569        C  0.17050105  0.86064602  0.01697623    -0.04800
C570        C  0.16413499  0.85187390  0.98762399     0.09400
C571        C  0.17142593  0.85908495  0.95763731    -0.02200
C572        C  0.18627076  0.87380316  0.95719432    -0.00400
C573        C  0.19513658  0.88039907  0.98687340    -0.04000
C574        C  0.18512105  0.87550501  0.01655554     0.03000
C575        C  0.14949847  0.83521327  0.98856280     0.09800
C576        C  0.16373069  0.85118235  0.92716039     0.35700
C577        C  0.18885460  0.88625516  0.04666657     0.39100
C578        C  0.12932725  0.83871250  0.98308950    -0.04400
C579        C  0.11555025  0.82296055  0.98397966     0.02800
C580        C  0.12155375  0.80347692  0.99342961    -0.04000
C581        C  0.14236363  0.80016979  0.99713255    -0.00200
C582        C  0.15596593  0.81592028  0.99521350    -0.02800
C583        C  0.12278463  0.85877094  0.97646960     0.36500
C584        C  0.15040720  0.78051799  0.00245857     0.40100
C585        C  0.09594730  0.82713063  0.97178865     0.39200
C586        C  0.17686893  0.81231095  0.00041182     0.36100
C587        C  0.16213737  0.85403757  0.04779848     0.36800
C588        C  0.19060649  0.88339086  0.92636843     0.40100
N589        N  0.08053735  0.83125404  0.96165354    -0.38000
N590        N  0.11767566  0.87481013  0.97138382    -0.39600
N591        N  0.15704416  0.76503928  0.00751943    -0.37300
N592        N  0.19349525  0.80944263  0.00474267    -0.39700
N593        N  0.15758247  0.84487249  0.90286743    -0.39500
N594        N  0.19344742  0.89089220  0.90137241    -0.37100
N595        N  0.19166771  0.89453537  0.07102980    -0.38200
N596        N  0.15549480  0.84853007  0.07223703    -0.39800
C597        C  0.21530849  0.97902192  0.01800264    -0.04800
C598        C  0.22856596  0.99053244  0.99960766     0.09400
C599        C  0.24204470  0.98105211  0.97859419    -0.02200
C600        C  0.24180420  0.96023557  0.97489163    -0.00400
C601        C  0.22832045  0.94842529  0.99299890    -0.04000
C602        C  0.21513477  0.95817273  0.01484675     0.03000
C603        C  0.22815785  0.01275732  0.00193657     0.09800
C604        C  0.25647704  0.99284969  0.96109794     0.35700
C605        C  0.20188633  0.94692244  0.03551922     0.39100
C606        C  0.24033374  0.02273916  0.02445780    -0.04400
C607        C  0.24009102  0.04366411  0.02644869     0.02800
C608        C  0.22754027  0.05499704  0.00573987    -0.04000
C609        C  0.21609580  0.04473209  0.98197441    -0.00200
C610        C  0.21604711  0.02382101  0.98074345    -0.02800
C611        C  0.25323620  0.01132040  0.04561220     0.36500
C612        C  0.20543160  0.05551410  0.95691401     0.40100
C613        C  0.25325074  0.05305643  0.04959333     0.39200
C614        C  0.20356959  0.01354977  0.95739677     0.36100
C615        C  0.20216432  0.98872984  0.04097345     0.36800
C616        C  0.25532991  0.95148238  0.95160937     0.40100
N617        N  0.26449269  0.05971308  0.06783657    -0.38000
N618        N  0.26353885  0.00219002  0.06241096    -0.39600
N619        N  0.19706205  0.06377895  0.93636283    -0.37300
N620        N  0.19358161  0.00526591  0.93895210    -0.39700
N621        N  0.26810762  0.00224580  0.94742812    -0.39500
N622        N  0.26662531  0.94545497  0.93287628    -0.37100
N623        N  0.19114346  0.93820786  0.05210146    -0.38200
N624        N  0.19180897  0.99651268  0.05945172    -0.39800
C625        C  0.87311654  0.71474349  0.92746492    -0.04800
C626        C  0.88268258  0.71544468  0.89681198     0.09400
C627        C  0.89476655  0.73178171  0.88903382    -0.02200
C628        C  0.89775623  0.74697549  0.91217017    -0.00400
C629        C  0.88990874  0.74514935  0.94398779    -0.04000
C630        C  0.87647603  0.72974200  0.95080690     0.03000
C631        C  0.88021601  0.69894519  0.87267699     0.09800
C632        C  0.90464819  0.73257418  0.85759068     0.35700
C633        C  0.86576623  0.72947056  0.98154292     0.39100
C634        C  0.86800629  0.70140225  0.84498482    -0.04400
C635        C  0.86678555  0.68636622  0.82104567     0.02800
C636        C  0.87766625  0.66864237  0.82478594    -0.04000
C637        C  0.88958440  0.66608394  0.85300156    -0.00200
C638        C  0.89085204  0.68118952  0.87676485    -0.02800
C639        C  0.85686525  0.71957069  0.84106398     0.36500
C640        C  0.90145691  0.64836816  0.85687203     0.40100
C641        C  0.85408108  0.68908549  0.79283032     0.39200
C642        C  0.90362087  0.67875698  0.90501963     0.36100
C643        C  0.86004943  0.69843398  0.93516918     0.36800
C644        C  0.90885793  0.76448934  0.90322289     0.40100
N645        N  0.84393567  0.69130619  0.77033159    -0.38000
N646        N  0.84808770  0.73414026  0.83804682    -0.39600
N647        N  0.91098700  0.63428309  0.85994835    -0.37300
N648        N  0.91379764  0.67686593  0.92756158    -0.39700
N649        N  0.91257664  0.73303930  0.83252294    -0.39500
N650        N  0.91773434  0.77843862  0.89605550    -0.37100
N651        N  0.85719748  0.72898689  0.00602887    -0.38200
N652        N  0.84968063  0.68540948  0.94153182    -0.39800
C653        C  0.01970152  0.63347235  0.70757982    -0.04800
C654        C  0.00783936  0.61853795  0.72139257     0.09400
C655        C  0.01682365  0.60169552  0.73525501    -0.02200
C656        C  0.03757476  0.60010318  0.73643300    -0.00400
C657        C  0.04961401  0.61560373  0.72428582    -0.04000
C658        C  0.04048020  0.63205165  0.70893348     0.03000
C659        C  0.98589293  0.62106230  0.72333858     0.09800
C660        C  0.00462773  0.58624868  0.74927901     0.35700
C661        C  0.05229877  0.64806655  0.69581309     0.39100
C662        C  0.97337788  0.61170319  0.70047449    -0.04400
C663        C  0.95266827  0.61287714  0.70404467     0.02800
C664        C  0.94434083  0.62367021  0.73033551    -0.04000
C665        C  0.95695882  0.63366680  0.75245278    -0.00200
C666        C  0.97761582  0.63224207  0.74907456    -0.02800
C667        C  0.98188180  0.60063289  0.67353695     0.36500
C668        C  0.94871359  0.64576052  0.77844614     0.40100
C669        C  0.94001655  0.60211232  0.68162099     0.39200
C670        C  0.99044381  0.64204065  0.77244256     0.36100
C671        C  0.01044922  0.65065395  0.69287586     0.36800
C672        C  0.04642270  0.58231742  0.74989160     0.40100
N673        N  0.92992421  0.59345500  0.66381084    -0.38000
N674        N  0.98868710  0.59183233  0.65201333    -0.39600
N675        N  0.94213084  0.65546000  0.79909063    -0.37300
N676        N  0.00071632  0.64984061  0.79103321    -0.39700
N677        N  0.99487023  0.57397554  0.76052261    -0.39500
N678        N  0.05344023  0.56810834  0.76058487    -0.37100
N679        N  0.06172602  0.66082949  0.68529877    -0.38200
N680        N  0.00308965  0.66440356  0.68123784    -0.39800
C681        C  0.11991838  0.72005900  0.90027494    -0.04800
C682        C  0.10300875  0.70957638  0.89072689     0.09400
C683        C  0.08452374  0.71462665  0.90385585    -0.02200
C684        C  0.08286769  0.73020556  0.92670009    -0.00400
C685        C  0.09992593  0.74055662  0.93746484    -0.04000
C686        C  0.11852290  0.73541386  0.92348872     0.03000
C687        C  0.10472620  0.69360556  0.86569144     0.09800
C688        C  0.06716164  0.70364376  0.89378496     0.35700
C689        C  0.13666421  0.74501165  0.93341378     0.39100
C690        C  0.10834091  0.67398329  0.87535795    -0.04400
C691        C  0.11063544  0.65901100  0.85157340     0.02800
C692        C  0.10986008  0.66370911  0.81758665    -0.04000
C693        C  0.10629451  0.68367433  0.80827131    -0.00200
C694        C  0.10360743  0.69841565  0.83227197    -0.02800
C695        C  0.10984905  0.66929792  0.90997066     0.36500
C696        C  0.10567774  0.68947186  0.77409280     0.40100
C697        C  0.11322367  0.63878661  0.86265275     0.39200
C698        C  0.09989888  0.71876443  0.82271305     0.36100
C699        C  0.13892123  0.71469073  0.88640166     0.36800
C700        C  0.06334448  0.73562881  0.93797111     0.40100
N701        N  0.11522612  0.62272155  0.87184591    -0.38000
N702        N  0.11112398  0.66562692  0.93756577    -0.39600
N703        N  0.10511078  0.69429470  0.74692394    -0.37300
N704        N  0.09694378  0.73502470  0.81537293    -0.39700
N705        N  0.05333352  0.69483936  0.88584075    -0.39500
N706        N  0.04744859  0.73925730  0.94632862    -0.37100
N707        N  0.15153606  0.75239661  0.93994672    -0.38200
N708        N  0.15400965  0.71032838  0.87529724    -0.39800
C709        C  0.86456814  0.48304041  0.79010513    -0.04800
C710        C  0.87693808  0.49635103  0.77338209     0.09400
C711        C  0.89281500  0.48911879  0.75461150    -0.02200
C712        C  0.89588417  0.46861451  0.75138504    -0.00400
C713        C  0.88286139  0.45505350  0.76662217    -0.04000
C714        C  0.86743916  0.46244096  0.78670464     0.03000
C715        C  0.87317615  0.51811084  0.77419313     0.09800
C716        C  0.90593402  0.50294846  0.73834551     0.35700
C717        C  0.85398046  0.44899004  0.80295736     0.39100
C718        C  0.88150110  0.52985841  0.79917562    -0.04400
C719        C  0.88160465  0.55063325  0.79620525     0.02800
C720        C  0.87342521  0.55967943  0.76815613    -0.04000
C721        C  0.86407722  0.54794427  0.74406792    -0.00200
C722        C  0.86379551  0.52721274  0.74727945    -0.02800
C723        C  0.89086071  0.52049610  0.82707084     0.36500
C724        C  0.85511481  0.55715912  0.71559314     0.40100
C725        C  0.89157661  0.56258191  0.82064022     0.39200
C726        C  0.85457607  0.51511924  0.72221867     0.36100
C727        C  0.84871928  0.49058735  0.81041740     0.36800
C728        C  0.91279025  0.46164495  0.73288389     0.40100
N729        N  0.89963115  0.57221242  0.83988311    -0.38000
N730        N  0.89833109  0.51304492  0.84936140    -0.39600
N731        N  0.84807008  0.56450874  0.69281833    -0.37300
N732        N  0.84723812  0.50544252  0.70226172    -0.39700
N733        N  0.91626876  0.51410425  0.72545329    -0.39500
N734        N  0.92633540  0.45623352  0.71814604    -0.37100
N735        N  0.84325531  0.43827167  0.81599353    -0.38200
N736        N  0.83612713  0.49657719  0.82677751    -0.39800
C737        C  0.86719434  0.32304948  0.85697856    -0.04800
C738        C  0.88516198  0.31322333  0.86373871     0.09400
C739        C  0.90239294  0.31880740  0.84668053    -0.02200
C740        C  0.90160543  0.33371819  0.82258452    -0.00400
C741        C  0.88372042  0.34374139  0.81617024    -0.04000
C742        C  0.86658742  0.33860026  0.83384724     0.03000
C743        C  0.88647090  0.29810368  0.89064940     0.09800
C744        C  0.92113576  0.30971641  0.85491545     0.35700
C745        C  0.84837419  0.34934879  0.82828018     0.39100
C746        C  0.88914086  0.27791543  0.88333082    -0.04400
C747        C  0.89236772  0.26407590  0.90874255     0.02800
C748        C  0.89142633  0.26990516  0.94213283    -0.04000
C749        C  0.88991542  0.29048740  0.94909501    -0.00200
C750        C  0.88731047  0.30435121  0.92351074    -0.02800
C751        C  0.88903136  0.27146745  0.84942877     0.36500
C752        C  0.89236363  0.29814417  0.98190687     0.40100
C753        C  0.89933385  0.24450452  0.90014320     0.39200
C754        C  0.88610760  0.32534075  0.93085744     0.36100
C755        C  0.84937131  0.31720611  0.87398559     0.36800
C756        C  0.91949532  0.33947706  0.80555905     0.40100
N757        N  0.90571202  0.22931673  0.89252448    -0.38000
N758        N  0.88894915  0.26638642  0.82236294    -0.39600
N759        N  0.89502829  0.30527495  0.00728688    -0.37300
N760        N  0.88518471  0.34208437  0.93652530    -0.39700
N761        N  0.93607048  0.30250392  0.86169671    -0.39500
N762        N  0.93373777  0.34414405  0.79201253    -0.37100
N763        N  0.83391148  0.35807381  0.82397709    -0.38200
N764        N  0.83511711  0.31252643  0.88747567    -0.39800
C765        C  0.14083196  0.48141691  0.80041020    -0.04800
C766        C  0.12374779  0.49281450  0.79482825     0.09400
C767        C  0.10536164  0.48341613  0.79090851    -0.02200
C768        C  0.10424663  0.46263448  0.79011851    -0.00400
C769        C  0.12157499  0.45107869  0.79338828    -0.04000
C770        C  0.13979273  0.46057581  0.79974133     0.03000
C771        C  0.12534417  0.51449879  0.78865362     0.09800
C772        C  0.08767830  0.49521953  0.78636777     0.35700
C773        C  0.15773723  0.44908978  0.80331829     0.39100
C774        C  0.13042063  0.52111139  0.75704059    -0.04400
C775        C  0.12978371  0.54139664  0.74952753     0.02800
C776        C  0.12385480  0.55525989  0.77357924    -0.04000
C777        C  0.11983564  0.54867843  0.80581945    -0.00200
C778        C  0.12048671  0.52830339  0.81322869    -0.02800
C779        C  0.13572706  0.50688245  0.73189897     0.36500
C780        C  0.11412547  0.56265042  0.83107180     0.40100
C781        C  0.13543120  0.54793499  0.71699562     0.39200
C782        C  0.11555345  0.52142679  0.84583018     0.36100
C783        C  0.15960404  0.49123822  0.80543150     0.36800
C784        C  0.08521352  0.45321054  0.78546176     0.40100
N785        N  0.13993529  0.55313489  0.69106416    -0.38000
N786        N  0.13994318  0.49548563  0.71194067    -0.39600
N787        N  0.10962288  0.57378049  0.85127488    -0.37300
N788        N  0.11155274  0.51594663  0.87182469    -0.39700
N789        N  0.07360552  0.50467868  0.78284131    -0.39500
N790        N  0.07005057  0.44570889  0.78160096    -0.37100
N791        N  0.17210302  0.43998777  0.80609644    -0.38200
N792        N  0.17455412  0.49913182  0.80939361    -0.39800
C793        C  0.02372459  0.37181466  0.75873747    -0.04800
C794        C  0.01564748  0.38301972  0.73289227     0.09400
C795        C  0.02829372  0.39303799  0.71108579    -0.02200
C796        C  0.04892246  0.39263871  0.71604244    -0.00400
C797        C  0.05692679  0.38252954  0.74331949    -0.04000
C798        C  0.04423874  0.37179063  0.76425804     0.03000
C799        C  0.99375910  0.38569897  0.73075802     0.09800
C800        C  0.01995466  0.40422332  0.68414593     0.35700
C801        C  0.05228244  0.36070105  0.79162600     0.39100
C802        C  0.98462029  0.40052304  0.74967940    -0.04400
C803        C  0.96390206  0.40230744  0.75005692     0.02800
C804        C  0.95199587  0.38905156  0.73171395    -0.04000
C805        C  0.96132149  0.37459889  0.71183999    -0.00200
C806        C  0.98213118  0.37301196  0.71134269    -0.02800
C807        C  0.99666052  0.41381210  0.76920005     0.36500
C808        C  0.94962829  0.36068102  0.69307690     0.40100
C809        C  0.95497596  0.41805858  0.76915909     0.39200
C810        C  0.99166937  0.35805187  0.69141180     0.36100
C811        C  0.01081480  0.36050690  0.77994282     0.36800
C812        C  0.06172855  0.40352849  0.69408269     0.40100
N813        N  0.94792852  0.43062061  0.78446421    -0.38000
N814        N  0.00633454  0.42433811  0.78474136    -0.39600
N815        N  0.94036986  0.34950838  0.67808652    -0.37300
N816        N  0.99937491  0.34617456  0.67550391    -0.39700
N817        N  0.01322421  0.41312365  0.66267624    -0.39500
N818        N  0.07191118  0.41220723  0.67648482    -0.37100
N819        N  0.05877484  0.35196910  0.81349187    -0.38200
N820        N  0.00052325  0.35137820  0.79671239    -0.39800
C821        C  0.11654682  0.30435769  0.85452881    -0.04800
C822        C  0.11616200  0.30836932  0.88834953     0.09400
C823        C  0.11952590  0.32777872  0.89954783    -0.02200
C824        C  0.12266751  0.34330319  0.87700250    -0.00400
C825        C  0.12215470  0.33961296  0.84272502    -0.04000
C826        C  0.11950427  0.31980722  0.83177542     0.03000
C827        C  0.11073883  0.29237406  0.91212081     0.09800
C828        C  0.11908794  0.33182276  0.93444948     0.35700
C829        C  0.11877374  0.31516891  0.79710713     0.39100
C830        C  0.12526309  0.27999621  0.92554437    -0.04400
C831        C  0.12008603  0.26515086  0.94833277     0.02800
C832        C  0.09988364  0.26165528  0.95677593    -0.04000
C833        C  0.08544510  0.27473810  0.94341458    -0.00200
C834        C  0.09094916  0.28991566  0.92143799    -0.02800
C835        C  0.14568973  0.28260782  0.91577925     0.36500
C836        C  0.06477780  0.27336285  0.95188873     0.40100
C837        C  0.13607231  0.25429928  0.96366253     0.39200
C838        C  0.07615578  0.30324766  0.90815316     0.36100
C839        C  0.11307557  0.28432026  0.84314962     0.36800
C840        C  0.12641923  0.36303312  0.88949684     0.40100
N841        N  0.14915490  0.24565899  0.97494139    -0.38000
N842        N  0.16196265  0.28457698  0.90790338    -0.39600
N843        N  0.04815303  0.27346940  0.95830229    -0.37300
N844        N  0.06448725  0.31397563  0.89754355    -0.39700
N845        N  0.11860215  0.33496768  0.96229517    -0.39500
N846        N  0.12937279  0.37873528  0.89966467    -0.37100
N847        N  0.11815525  0.31134515  0.76949710    -0.38200
N848        N  0.11023997  0.26833736  0.83417368    -0.39800
C849        C  0.71588550  0.87765343  0.91763138    -0.04800
C850        C  0.71002381  0.89268347  0.89577224     0.09400
C851        C  0.71965212  0.91118835  0.89655017    -0.02200
C852        C  0.73444201  0.91496042  0.92011944    -0.00400
C853        C  0.73997864  0.90008362  0.94255424    -0.04000
C854        C  0.73087499  0.88126458  0.94081622     0.03000
C855        C  0.69300047  0.88926595  0.87305122     0.09800
C856        C  0.71423445  0.92633966  0.87310045     0.35700
C857        C  0.73576183  0.86609680  0.96461676     0.39100
C858        C  0.67397155  0.89581202  0.88182012    -0.04400
C859        C  0.65775177  0.89229068  0.86090967     0.02800
C860        C  0.66047716  0.88237595  0.83059843    -0.04000
C861        C  0.67965694  0.87571601  0.82208264    -0.00200
C862        C  0.69576474  0.87907343  0.84330551    -0.02800
C863        C  0.67112980  0.90643624  0.91234553     0.36500
C864        C  0.68291962  0.86508828  0.79168617     0.40100
C865        C  0.63845183  0.89959866  0.87040025     0.39200
C866        C  0.71528993  0.87208410  0.83452747     0.36100
C867        C  0.70595919  0.85866231  0.91698127     0.36800
C868        C  0.74396414  0.93413986  0.92124268     0.40100
N869        N  0.62312134  0.90544280  0.87827814    -0.38000
N870        N  0.66879462  0.91502864  0.93654770    -0.39600
N871        N  0.68552057  0.85667673  0.76737796    -0.37300
N872        N  0.73085696  0.86645517  0.82758070    -0.39700
N873        N  0.70993529  0.93837559  0.85426762    -0.39500
N874        N  0.75149002  0.94948535  0.92204972    -0.37100
N875        N  0.73960872  0.85409578  0.98377727    -0.38200
N876        N  0.69801658  0.84352590  0.91645545    -0.39800
C877        C  0.61069869  0.97279925  0.70193840    -0.04800
C878        C  0.62039282  0.98484449  0.72505723     0.09400
C879        C  0.63150614  0.97613356  0.75041200    -0.02200
C880        C  0.63152352  0.95546221  0.75435274    -0.00400
C881        C  0.62061194  0.94337049  0.73260782    -0.04000
C882        C  0.61097808  0.95204525  0.70544848     0.03000
C883        C  0.61688947  0.00661965  0.72539727     0.09800
C884        C  0.64220258  0.98857931  0.77329980     0.35700
C885        C  0.60018179  0.93984192  0.68240264     0.39100
C886        C  0.60264216  0.01444934  0.74689507    -0.04400
C887        C  0.60011072  0.03503293  0.74956273     0.02800
C888        C  0.61166871  0.04803100  0.73025128    -0.04000
C889        C  0.62540644  0.04003079  0.70767534    -0.00200
C890        C  0.62799956  0.01935986  0.70535648    -0.02800
C891        C  0.59057200  0.00118219  0.76637074     0.36500
C892        C  0.63759921  0.05295850  0.68789752     0.40100
C893        C  0.58546041  0.04265311  0.77222209     0.39200
C894        C  0.64227484  0.01112263  0.68270223     0.36100
C895        C  0.59950168  0.98190777  0.67569851     0.36800
C896        C  0.64249427  0.94668629  0.78123622     0.40100
N897        N  0.57384642  0.04859798  0.79051520    -0.38000
N898        N  0.58096350  0.99054210  0.78176343    -0.39600
N899        N  0.64736140  0.06323618  0.67209872    -0.37300
N900        N  0.65358766  0.00447893  0.66455711    -0.39700
N901        N  0.65069296  0.99854302  0.79153473    -0.39500
N902        N  0.65116122  0.93969257  0.80274276    -0.37100
N903        N  0.59154063  0.93018835  0.66390970    -0.38200
N904        N  0.59056441  0.98932485  0.65490986    -0.39800
C905        C  0.72088063  0.11059883  0.88501943    -0.04800
C906        C  0.70069643  0.11378918  0.89141878     0.09400
C907        C  0.69410333  0.11463014  0.92412928    -0.02200
C908        C  0.70757088  0.11254132  0.95034993    -0.00400
C909        C  0.72798525  0.10994749  0.94412961    -0.04000
C910        C  0.73441123  0.10846632  0.91111853     0.03000
C911        C  0.68599784  0.11478053  0.86389103     0.09800
C912        C  0.67324607  0.11738985  0.93075284     0.35700
C913        C  0.75470732  0.10320647  0.90387693     0.39100
C914        C  0.67931942  0.09717916  0.84900498    -0.04400
C915        C  0.66424929  0.09779240  0.82515304     0.02800
C916        C  0.65543243  0.11602284  0.81634452    -0.04000
C917        C  0.66258545  0.13370519  0.83043202    -0.00200
C918        C  0.67796318  0.13309311  0.85387555    -0.02800
C919        C  0.68783766  0.07836596  0.85863529     0.36500
C920        C  0.65456938  0.15255331  0.82000354     0.40100
C921        C  0.65742442  0.07949720  0.81039959     0.39200
C922        C  0.68576352  0.15129300  0.86744433     0.36100
C923        C  0.72767970  0.10920246  0.85144152     0.36800
C924        C  0.69996345  0.11273099  0.98345875     0.40100
N925        N  0.65204795  0.06489541  0.79860374    -0.38000
N926        N  0.69475181  0.06341753  0.86630867    -0.39600
N927        N  0.64823275  0.16759841  0.81152180    -0.37300
N928        N  0.69212966  0.16579725  0.87814661    -0.39700
N929        N  0.65661785  0.11963078  0.93595262    -0.39500
N930        N  0.69299331  0.11252914  0.00929813    -0.37100
N931        N  0.77087134  0.09885633  0.89828855    -0.38200
N932        N  0.73312663  0.10802193  0.82466588    -0.39800
C933        C  0.47689693  0.87564306  0.74823901    -0.04800
C934        C  0.48481005  0.88595403  0.77526002     0.09400
C935        C  0.47221879  0.89687744  0.79596667    -0.02200
C936        C  0.45188780  0.89822300  0.78882132    -0.00400
C937        C  0.44405279  0.88837794  0.76120101    -0.04000
C938        C  0.45657919  0.87683593  0.74121239     0.03000
C939        C  0.50668610  0.88692752  0.77948777     0.09800
C940        C  0.48032048  0.90705588  0.82417309     0.35700
C941        C  0.44856158  0.86607376  0.71348918     0.39100
C942        C  0.51732170  0.90188859  0.76332241    -0.04400
C943        C  0.53807369  0.90155319  0.76318155     0.02800
C944        C  0.54845321  0.88593359  0.77869938    -0.04000
C945        C  0.53772028  0.87169899  0.79690220    -0.00200
C946        C  0.51686633  0.87224903  0.79724366    -0.02800
C947        C  0.50680093  0.91735878  0.74592568     0.36500
C948        C  0.54790714  0.85596796  0.81411612     0.40100
C949        C  0.54867450  0.91749144  0.74714997     0.39200
C950        C  0.50577450  0.85744122  0.81509710     0.36100
C951        C  0.48983344  0.86414142  0.72727778     0.36800
C952        C  0.43925828  0.91070642  0.80869986     0.40100
N953        N  0.55714006  0.93018325  0.73438548    -0.38000
N954        N  0.49837023  0.92964915  0.73203054    -0.39600
N955        N  0.55592542  0.84339778  0.82801048    -0.37300
N956        N  0.49684405  0.84569657  0.82937365    -0.39700
N957        N  0.48680497  0.91509889  0.84675775    -0.39500
N958        N  0.42916378  0.92077947  0.82433404    -0.37100
N959        N  0.44221589  0.85742124  0.69141578    -0.38200
N960        N  0.50023639  0.85499021  0.71068022    -0.39800
C961        C  0.31866586  0.91314809  0.85221787    -0.04800
C962        C  0.30440642  0.89801357  0.85465976     0.09400
C963        C  0.30477779  0.88216795  0.83214849    -0.02200
C964        C  0.31955937  0.88120438  0.80781855    -0.00400
C965        C  0.33433804  0.89589482  0.80620057    -0.04000
C966        C  0.33358946  0.91209205  0.82816263     0.03000
C967        C  0.28944449  0.89843539  0.88175910     0.09800
C968        C  0.29010605  0.86664994  0.83444021     0.35700
C969        C  0.34769797  0.92812674  0.82519124     0.39100
C970        C  0.26996447  0.90479667  0.87579964    -0.04400
C971        C  0.25614730  0.90567139  0.90166210     0.02800
C972        C  0.26150729  0.89973349  0.93372657    -0.04000
C973        C  0.28125893  0.89389750  0.93969268    -0.00200
C974        C  0.29503938  0.89306985  0.91377727    -0.02800
C975        C  0.26427070  0.91086597  0.84309542     0.36500
C976        C  0.28805623  0.88914765  0.97227908     0.40100
C977        C  0.23709495  0.91480087  0.89598554     0.39200
C978        C  0.31515868  0.88670003  0.92003066     0.36100
C979        C  0.31789460  0.92986069  0.87448927     0.36800
C980        C  0.31981898  0.86478666  0.78499555     0.40100
N981        N  0.22219867  0.92272883  0.89161547    -0.38000
N982        N  0.25970672  0.91564884  0.81696833    -0.39600
N983        N  0.29505913  0.88548846  0.99736324    -0.37300
N984        N  0.33120091  0.88167606  0.92502476    -0.39700
N985        N  0.27837509  0.85428259  0.83626254    -0.39500
N986        N  0.31996460  0.85172161  0.76669412    -0.37100
N987        N  0.35886523  0.94097242  0.82266532    -0.38200
N988        N  0.31724096  0.94317107  0.89228560    -0.39800
C989        C  0.46652208  0.10795677  0.79101200    -0.04800
C990        C  0.47873348  0.11307117  0.76439703     0.09400
C991        C  0.47016744  0.11984024  0.73499666    -0.02200
C992        C  0.44953213  0.12191913  0.73238620    -0.00400
C993        C  0.43715398  0.11666928  0.75893128    -0.04000
C994        C  0.44579999  0.10972575  0.78834506     0.03000
C995        C  0.50071913  0.11131566  0.76697126     0.09800
C996        C  0.48266469  0.12437614  0.70716656     0.35700
C997        C  0.43342338  0.10370520  0.81550965     0.39100
C998        C  0.51033034  0.09430511  0.75503016    -0.04400
C999        C  0.53112773  0.09340712  0.75428054     0.02800
C1000       C  0.54257730  0.10967024  0.76530625    -0.04000
C1001       C  0.53280856  0.12654083  0.77802654    -0.00200
C1002       C  0.51198453  0.12725168  0.77906309    -0.02800
C1003       C  0.49870524  0.07793436  0.74256018     0.36500
C1004       C  0.54402566  0.14383351  0.78775004     0.40100
C1005       C  0.54058587  0.07573595  0.74162504     0.39200
C1006       C  0.50204366  0.14470845  0.79149104     0.36100
C1007       C  0.47534436  0.10040576  0.82084137     0.36800
C1008       C  0.44117002  0.13014913  0.70263053     0.40100
N1009       N  0.54790097  0.06161159  0.73118066    -0.38000
N1010       N  0.48938630  0.06494983  0.73249587    -0.39600
N1011       N  0.55296103  0.15769463  0.79523771    -0.37300
N1012       N  0.49405627  0.15860250  0.80141021    -0.39700
N1013       N  0.49264265  0.12779460  0.68490441    -0.39500
N1014       N  0.43453546  0.13680421  0.67895432    -0.37100
N1015       N  0.42355704  0.09887491  0.83718626    -0.38200
N1016       N  0.48244986  0.09430417  0.84454440    -0.39800
C1017       C  0.38258572  0.99298580  0.72103729    -0.04800
C1018       C  0.36759202  0.99922547  0.69951235     0.09400
C1019       C  0.35668955  0.98514224  0.68175255    -0.02200
C1020       C  0.36001429  0.96473657  0.68678465    -0.00400
C1021       C  0.37482569  0.95827116  0.70902977    -0.04000
C1022       C  0.38642223  0.97270220  0.72549239     0.03000
C1023       C  0.36282115  0.02075706  0.69745137     0.09800
C1024       C  0.34191487  0.99172948  0.65848929     0.35700
C1025       C  0.40245682  0.96697833  0.74710941     0.39100
C1026       C  0.37455106  0.03338783  0.67812561    -0.04400
C1027       C  0.37365754  0.05405266  0.68281176     0.02800
C1028       C  0.36088632  0.06208144  0.70676387    -0.04000
C1029       C  0.34758290  0.04949450  0.72333069    -0.00200
C1030       C  0.34868546  0.02886277  0.71892116    -0.02800
C1031       C  0.38849710  0.02495787  0.65509646     0.36500
C1032       C  0.33308656  0.05774641  0.74561762     0.40100
C1033       C  0.38715652  0.06677088  0.66511499     0.39200
C1034       C  0.33623539  0.01586605  0.73815931     0.36100
C1035       C  0.39389162  0.00760056  0.73915664     0.36800
C1036       C  0.34744942  0.95062252  0.67003193     0.40100
N1037       N  0.39800823  0.07686147  0.65104044    -0.38000
N1038       N  0.39963143  0.01816977  0.63679308    -0.39600
N1039       N  0.32143680  0.06429587  0.76326519    -0.37300
N1040       N  0.32638298  0.00546955  0.75358309    -0.39700
N1041       N  0.33021250  0.99696016  0.63975699    -0.39500
N1042       N  0.33731807  0.93943799  0.65670867    -0.37100
N1043       N  0.41522144  0.96254176  0.76445509    -0.38200
N1044       N  0.40283896  0.01929652  0.75355870    -0.39800
C1045       C  0.30215057  0.13300465  0.85719041    -0.04800
C1046       C  0.29947474  0.11423933  0.87176873     0.09400
C1047       C  0.31164988  0.09834700  0.86207623    -0.02200
C1048       C  0.32701675  0.10137264  0.83937859    -0.00400
C1049       C  0.32955444  0.12004944  0.82434695    -0.04000
C1050       C  0.31705423  0.13587486  0.83339984     0.03000
C1051       C  0.28480111  0.11139092  0.89900310     0.09800
C1052       C  0.30812791  0.07874103  0.87522654     0.35700
C1053       C  0.32029971  0.15539252  0.81974908     0.39100
C1054       C  0.26451008  0.10973380  0.89232987    -0.04400
C1055       C  0.25082232  0.10697892  0.91811548     0.02800
C1056       C  0.25724207  0.10595660  0.95139940    -0.04000
C1057       C  0.27798183  0.10620767  0.95737912    -0.00200
C1058       C  0.29147380  0.10927720  0.93146757    -0.02800
C1059       C  0.25780846  0.11024964  0.85857779     0.36500
C1060       C  0.28618154  0.10277172  0.98960407     0.40100
C1061       C  0.23024271  0.10410124  0.90961325     0.39200
C1062       C  0.31252786  0.10996466  0.93812637     0.36100
C1063       C  0.28963148  0.14938232  0.86688239     0.36800
C1064       C  0.34026613  0.08516173  0.83165724     0.40100
N1065       N  0.21385751  0.10199294  0.90246400    -0.38000
N1066       N  0.25254869  0.11057962  0.83162037    -0.39600
N1067       N  0.29361359  0.09951453  0.01455223    -0.37300
N1068       N  0.32930914  0.11032093  0.94328157    -0.39700
N1069       N  0.30518558  0.06309975  0.88559527    -0.39500
N1070       N  0.35100898  0.07231644  0.82588908    -0.37100
N1071       N  0.32301270  0.17102705  0.80916411    -0.38200
N1072       N  0.27954943  0.16240968  0.87450956    -0.39800
C1073       C  0.77819958  0.59645699  0.59927281    -0.04800
C1074       C  0.78319687  0.61528105  0.61146291     0.09400
C1075       C  0.77213622  0.63181547  0.60157472    -0.02200
C1076       C  0.75614811  0.62965720  0.57968922    -0.00400
C1077       C  0.75206365  0.61101629  0.56471708    -0.04000
C1078       C  0.76291350  0.59429404  0.57590942     0.03000
C1079       C  0.80000887  0.61783703  0.63508507     0.09800
C1080       C  0.77771731  0.65134471  0.61322485     0.35700
C1081       C  0.75820441  0.57451423  0.56481230     0.39100
C1082       C  0.81967792  0.61651753  0.62405146    -0.04400
C1083       C  0.83551640  0.61939842  0.64606651     0.02800
C1084       C  0.83183528  0.62396485  0.67945003    -0.04000
C1085       C  0.81199239  0.62559766  0.69021054    -0.00200
C1086       C  0.79624178  0.62233044  0.66824022    -0.02800
C1087       C  0.82358497  0.61203870  0.58990213     0.36500
C1088       C  0.80757153  0.63094737  0.72384131     0.40100
C1089       C  0.85553610  0.61676542  0.63432581     0.39200
C1090       C  0.77603589  0.62347590  0.67982277     0.36100
C1091       C  0.78902646  0.57924783  0.61065446     0.36800
C1092       C  0.74416172  0.64698724  0.57377886     0.40100
N1093       N  0.87146471  0.61458850  0.62480097    -0.38000
N1094       N  0.82661474  0.60834928  0.56269116    -0.39600
N1095       N  0.80399248  0.63517536  0.75065457    -0.37300
N1096       N  0.75992735  0.62444973  0.68903760    -0.39700
N1097       N  0.78225461  0.66689340  0.62235827    -0.39500
N1098       N  0.73481103  0.66123778  0.57160300    -0.37100
N1099       N  0.75527569  0.55836344  0.55684742    -0.38200
N1100       N  0.79771296  0.56554417  0.61962942    -0.39800
C1101       C  0.81203795  0.41149479  0.65140977    -0.04800
C1102       C  0.80754759  0.39617574  0.62918261     0.09400
C1103       C  0.81851433  0.37839532  0.63022161    -0.02200
C1104       C  0.83392583  0.37600158  0.65330253    -0.00400
C1105       C  0.83869204  0.39151702  0.67514322    -0.04000
C1106       C  0.82756972  0.40925797  0.67410629     0.03000
C1107       C  0.79143783  0.39904651  0.60433171     0.09800
C1108       C  0.81380331  0.36252536  0.60763614     0.35700
C1109       C  0.83252708  0.42562093  0.69561188     0.39100
C1110       C  0.79617543  0.40382021  0.57170078    -0.04400
C1111       C  0.78112276  0.40634733  0.54805442     0.02800
C1112       C  0.76091960  0.40490616  0.55719067    -0.04000
C1113       C  0.75639832  0.40217843  0.59089222    -0.00200
C1114       C  0.77148939  0.39849409  0.61391591    -0.02800
C1115       C  0.81667131  0.40693111  0.56280244     0.36500
C1116       C  0.73635392  0.40479766  0.60263350     0.40100
C1117       C  0.78698400  0.41084784  0.51482069     0.39200
C1118       C  0.76649637  0.39466762  0.64786028     0.36100
C1119       C  0.80068552  0.42969436  0.65067786     0.36800
C1120       C  0.84428059  0.35728233  0.65549501     0.40100
N1121       N  0.79246902  0.41486834  0.48884358    -0.38000
N1122       N  0.83297935  0.40968157  0.55582747    -0.39600
N1123       N  0.72039657  0.40707538  0.61195501    -0.37300
N1124       N  0.76251211  0.39174630  0.67497276    -0.39700
N1125       N  0.81005533  0.34990673  0.58951786    -0.39500
N1126       N  0.85240182  0.34226755  0.65743056    -0.37100
N1127       N  0.83650021  0.43868842  0.71269591    -0.38200
N1128       N  0.79144073  0.44408262  0.65010831    -0.39800
C1129       C  0.71103302  0.48591473  0.48396145    -0.04800
C1130       C  0.72386376  0.49687919  0.50424299     0.09400
C1131       C  0.73610656  0.48676378  0.52657382    -0.02200
C1132       C  0.73548562  0.46589767  0.52881495    -0.00400
C1133       C  0.72305828  0.45470877  0.50787811    -0.04000
C1134       C  0.71068196  0.46498129  0.48556408     0.03000
C1135       C  0.72399992  0.51916445  0.50308452     0.09800
C1136       C  0.74940276  0.49795855  0.54737801     0.35700
C1137       C  0.69794211  0.45411966  0.46342183     0.39100
C1138       C  0.71391799  0.53015882  0.52723716    -0.04400
C1139       C  0.71419583  0.55105646  0.52664144     0.02800
C1140       C  0.72455660  0.56129652  0.50173598    -0.04000
C1141       C  0.73501385  0.55024078  0.47798081    -0.00200
C1142       C  0.73462731  0.52929900  0.47855640    -0.02800
C1143       C  0.70339916  0.51986630  0.55300471     0.36500
C1144       C  0.74611062  0.56024923  0.45265237     0.40100
C1145       C  0.70476527  0.56200363  0.55289482     0.39200
C1146       C  0.74526491  0.51811094  0.45393044     0.36100
C1147       C  0.69814528  0.49628356  0.46140251     0.36800
C1148       C  0.74707354  0.45623741  0.55397197     0.40100
N1149       N  0.69736938  0.57076304  0.57392274    -0.38000
N1150       N  0.69511258  0.51157475  0.57359442    -0.39600
N1151       N  0.75524036  0.56778183  0.43226262    -0.37300
N1152       N  0.75372514  0.50921064  0.43421111    -0.39700
N1153       N  0.75998658  0.50693761  0.56391389    -0.39500
N1154       N  0.75639668  0.44916693  0.57461090    -0.37100
N1155       N  0.68775785  0.44549286  0.44571659    -0.38200
N1156       N  0.68788814  0.50463612  0.44345640    -0.39800
C1157       C  0.39668263  0.78143835  0.60114987    -0.04800
C1158       C  0.38637213  0.79887302  0.59276943     0.09400
C1159       C  0.37730884  0.80031294  0.56174000    -0.02200
C1160       C  0.37871701  0.78456999  0.53910052    -0.00400
C1161       C  0.38901373  0.76711491  0.54741495    -0.04000
C1162       C  0.39783811  0.76555626  0.57871806     0.03000
C1163       C  0.38475361  0.81566457  0.61676088     0.09800
C1164       C  0.36623609  0.81796952  0.55334314     0.35700
C1165       C  0.40877864  0.74786627  0.58737836     0.39100
C1166       C  0.39602191  0.83300971  0.61241106    -0.04400
C1167       C  0.39433108  0.84887923  0.63477881     0.02800
C1168       C  0.38115243  0.84764095  0.66166158    -0.04000
C1169       C  0.36964193  0.83035030  0.66556960    -0.00200
C1170       C  0.37159804  0.81439852  0.64344461    -0.02800
C1171       C  0.40956074  0.83440949  0.58500801     0.36500
C1172       C  0.35517720  0.82917265  0.69162163     0.40100
C1173       C  0.40676405  0.86615770  0.63061658     0.39200
C1174       C  0.36000852  0.79660077  0.64806563     0.36100
C1175       C  0.40623773  0.77993891  0.63282713     0.36800
C1176       C  0.36897613  0.78628975  0.50769223     0.40100
N1177       N  0.41671162  0.87991269  0.62729836    -0.38000
N1178       N  0.42028667  0.83554816  0.56306026    -0.39600
N1179       N  0.34352387  0.82820326  0.71223817    -0.37300
N1180       N  0.35090395  0.78231733  0.65183006    -0.39700
N1181       N  0.35742821  0.83207998  0.54673546    -0.39500
N1182       N  0.36088630  0.78828580  0.48298400    -0.37100
N1183       N  0.41757678  0.73377074  0.59411053    -0.38200
N1184       N  0.41380205  0.77876264  0.65815988    -0.39800
C1185       C  0.60357389  0.76987418  0.61597681    -0.04800
C1186       C  0.60421519  0.79053681  0.61250003     0.09400
C1187       C  0.60222959  0.79899940  0.58121918    -0.02200
C1188       C  0.59940159  0.78691094  0.55338722    -0.00400
C1189       C  0.59902019  0.76594556  0.55638353    -0.04000
C1190       C  0.60128141  0.75760329  0.58821502     0.03000
C1191       C  0.60700174  0.80359669  0.64178609     0.09800
C1192       C  0.60324804  0.82036033  0.57772685     0.35700
C1193       C  0.60098831  0.73639252  0.59321827     0.39100
C1194       C  0.62566843  0.81189100  0.64844035    -0.04400
C1195       C  0.62784586  0.82600020  0.67365733     0.02800
C1196       C  0.61144184  0.83153654  0.69292421    -0.04000
C1197       C  0.59303603  0.82217507  0.68765959    -0.00200
C1198       C  0.59079091  0.80843416  0.66189460    -0.02800
C1199       C  0.64259442  0.80591398  0.62911701     0.36500
C1200       C  0.57612617  0.82731426  0.70772226     0.40100
C1201       C  0.64705082  0.83458947  0.68010899     0.39200
C1202       C  0.57167218  0.79963197  0.65542038     0.36100
C1203       C  0.60527386  0.76126267  0.64840345     0.36800
C1204       C  0.59737385  0.79664706  0.52201605     0.40100
N1205       N  0.66239175  0.84139456  0.68531378    -0.38000
N1206       N  0.65606563  0.80102148  0.61372075    -0.39600
N1207       N  0.56264385  0.83134619  0.72377282    -0.37300
N1208       N  0.55646033  0.79254912  0.65018230    -0.39700
N1209       N  0.60420496  0.83736221  0.57494508    -0.39500
N1210       N  0.59557053  0.80561778  0.49809668    -0.37100
N1211       N  0.60098762  0.71954372  0.59809436    -0.38200
N1212       N  0.60651210  0.75446726  0.67431973    -0.39800
C1213       C  0.64426597  0.68635550  0.46713262    -0.04800
C1214       C  0.64183336  0.67193649  0.49152026     0.09400
C1215       C  0.62590156  0.67350934  0.51328305    -0.02200
C1216       C  0.61265729  0.68969206  0.51117650    -0.00400
C1217       C  0.61574467  0.70541912  0.48813184    -0.04000
C1218       C  0.63266931  0.70370401  0.46721743     0.03000
C1219       C  0.65787958  0.65686616  0.49657799     0.09800
C1220       C  0.62351044  0.65865038  0.53859075     0.35700
C1221       C  0.64066234  0.72008143  0.44871446     0.39100
C1222       C  0.67652508  0.66336275  0.50725237    -0.04400
C1223       C  0.69294939  0.65069440  0.50558938     0.02800
C1224       C  0.69069605  0.63021690  0.49816491    -0.04000
C1225       C  0.67206581  0.62414484  0.48526897    -0.00200
C1226       C  0.65570701  0.63725895  0.48549876    -0.02800
C1227       C  0.67904723  0.68361518  0.51844271     0.36500
C1228       C  0.67019259  0.60619342  0.46618813     0.40100
C1229       C  0.71236222  0.65971255  0.50598369     0.39200
C1230       C  0.63674782  0.63087472  0.47284453     0.36100
C1231       C  0.65982116  0.68380477  0.44292767     0.36800
C1232       C  0.59634318  0.69017806  0.53412413     0.40100
N1233       N  0.72768037  0.66718530  0.50433836    -0.38000
N1234       N  0.68103361  0.69975380  0.52728716    -0.39600
N1235       N  0.66846245  0.59214323  0.45022793    -0.37300
N1236       N  0.62159803  0.62575603  0.46291732    -0.39700
N1237       N  0.62165340  0.64677655  0.55874209    -0.39500
N1238       N  0.58318657  0.69013953  0.55217172    -0.37100
N1239       N  0.64794082  0.73251837  0.43345951    -0.38200
N1240       N  0.67219754  0.68170951  0.42373168    -0.39800
C1241       C  0.51620751  0.73444771  0.52985234    -0.04800
C1242       C  0.50512320  0.73501777  0.50054068     0.09400
C1243       C  0.51516201  0.73599737  0.47022211    -0.02200
C1244       C  0.53597784  0.73577371  0.46924104    -0.00400
C1245       C  0.54699641  0.73636507  0.49856774    -0.04000
C1246       C  0.53701579  0.73563998  0.52887677     0.03000
C1247       C  0.48290864  0.73446749  0.50137636     0.09800
C1248       C  0.50402233  0.73752810  0.43998518     0.35700
C1249       C  0.54807553  0.73563466  0.55920568     0.39100
C1250       C  0.47205569  0.75063644  0.51379536    -0.04400
C1251       C  0.45116302  0.75021337  0.51417221     0.02800
C1252       C  0.44076309  0.73411455  0.49983441    -0.04000
C1253       C  0.45195133  0.71890014  0.48463612    -0.00200
C1254       C  0.47265376  0.71831477  0.48773135    -0.02800
C1255       C  0.48247110  0.76799623  0.52558472     0.36500
C1256       C  0.44262026  0.70533264  0.46191031     0.40100
C1257       C  0.44090234  0.76682824  0.52865689     0.39200
C1258       C  0.48345742  0.70107237  0.47644883     0.36100
C1259       C  0.50620077  0.73233828  0.56104578     0.36800
C1260       C  0.54605768  0.73477044  0.43796439     0.40100
N1261       N  0.43352224  0.78069873  0.53987541    -0.38000
N1262       N  0.49079469  0.78183673  0.53489986    -0.39600
N1263       N  0.43550304  0.69496481  0.44270773    -0.37300
N1264       N  0.49208280  0.68729657  0.46760385    -0.39700
N1265       N  0.49500931  0.73873849  0.41599703    -0.39500
N1266       N  0.55406339  0.73394311  0.41298435    -0.37100
N1267       N  0.55644559  0.73559493  0.58387992    -0.38200
N1268       N  0.49823562  0.73066207  0.58594218    -0.39800
C1269       C  0.19703708  0.40077881  0.58257738    -0.04800
C1270       C  0.20485667  0.39814208  0.61413658     0.09400
C1271       C  0.22541584  0.39823065  0.61859929    -0.02200
C1272       C  0.23816286  0.40041643  0.59147013    -0.00400
C1273       C  0.23053887  0.40072786  0.55893334    -0.04000
C1274       C  0.20961185  0.40145439  0.55501454     0.03000
C1275       C  0.19129489  0.39540743  0.64274558     0.09800
C1276       C  0.23341460  0.39616616  0.65138076     0.35700
C1277       C  0.20031110  0.40292518  0.52318989     0.39100
C1278       C  0.18385301  0.37644696  0.65022680    -0.04400
C1279       C  0.17082881  0.37385575  0.67685075     0.02800
C1280       C  0.16454099  0.39034806  0.69536522    -0.04000
C1281       C  0.17199620  0.40935416  0.68775557    -0.00200
C1282       C  0.18557259  0.41178917  0.66189807    -0.02800
C1283       C  0.18953679  0.35962854  0.63029411     0.36500
C1284       C  0.16500962  0.42660357  0.70548643     0.40100
C1285       C  0.16453171  0.35412838  0.68599004     0.39200
C1286       C  0.19352958  0.43120535  0.65468945     0.36100
C1287       C  0.17586723  0.40314196  0.57860026     0.36800
C1288       C  0.25898796  0.40353169  0.59772901     0.40100
N1289       N  0.15969936  0.33837103  0.69355491    -0.38000
N1290       N  0.19400470  0.34626102  0.61421383    -0.39600
N1291       N  0.15932393  0.44036277  0.71947398    -0.37300
N1292       N  0.19998377  0.44666764  0.64904741    -0.39700
N1293       N  0.23967780  0.39445324  0.67759001    -0.39500
N1294       N  0.27555428  0.40603705  0.60314800    -0.37100
N1295       N  0.19202680  0.40463951  0.49856597    -0.38200
N1296       N  0.15904827  0.40532780  0.57537019    -0.39800
C1297       C  0.20429191  0.59617940  0.57817076    -0.04800
C1298       C  0.20268407  0.61522138  0.59182863     0.09400
C1299       C  0.21407668  0.63070122  0.57886382    -0.02200
C1300       C  0.22767233  0.62701117  0.55334789    -0.00400
C1301       C  0.23103353  0.60738354  0.54164959    -0.04000
C1302       C  0.21821437  0.59219287  0.55322670     0.03000
C1303       C  0.18839299  0.61891277  0.61926200     0.09800
C1304       C  0.21173657  0.65054923  0.59186918     0.35700
C1305       C  0.21843884  0.57241567  0.53966773     0.39100
C1306       C  0.19281641  0.61235113  0.65121653    -0.04400
C1307       C  0.17848154  0.61355771  0.67624571     0.02800
C1308       C  0.15968369  0.62196139  0.66977074    -0.04000
C1309       C  0.15572372  0.62943387  0.63800386    -0.00200
C1310       C  0.16990829  0.62766652  0.61285004    -0.02800
C1311       C  0.21203594  0.60381726  0.65802610     0.36500
C1312       C  0.13703117  0.63897673  0.63095526     0.40100
C1313       C  0.18276923  0.60482971  0.70791481     0.39200
C1314       C  0.16528147  0.63430111  0.57995932     0.36100
C1315       C  0.19130472  0.58062345  0.58983990     0.36800
C1316       C  0.23723025  0.64387562  0.53822967     0.40100
N1317       N  0.18621750  0.59769156  0.73302742    -0.38000
N1318       N  0.22737327  0.59701254  0.66334609    -0.39600
N1319       N  0.12211716  0.64657431  0.62527333    -0.37300
N1320       N  0.16166811  0.63955392  0.55367031    -0.39700
N1321       N  0.20980921  0.66637640  0.60218391    -0.39500
N1322       N  0.24478876  0.65754496  0.52674054    -0.37100
N1323       N  0.21760514  0.55653575  0.52914448    -0.38200
N1324       N  0.18088572  0.56832251  0.59920840    -0.39800
C1325       C  0.32718906  0.63945049  0.47172763    -0.04800
C1326       C  0.33256706  0.64660453  0.50291762     0.09400
C1327       C  0.32438713  0.63763178  0.53090109    -0.02200
C1328       C  0.30930871  0.62332388  0.52760831    -0.00400
C1329       C  0.30094363  0.61921346  0.49634729    -0.04000
C1330       C  0.31206233  0.62518848  0.46851645     0.03000
C1331       C  0.34655592  0.66379592  0.50608202     0.09800
C1332       C  0.33136481  0.64330938  0.56311556     0.35700
C1333       C  0.30948870  0.61541542  0.43719013     0.39100
C1334       C  0.33904369  0.68299889  0.50974357    -0.04400
C1335       C  0.35179177  0.69955720  0.51020433     0.02800
C1336       C  0.37277902  0.69739167  0.50672867    -0.04000
C1337       C  0.38001103  0.67756169  0.50248059    -0.00200
C1338       C  0.36701958  0.66108744  0.50339404    -0.02800
C1339       C  0.31783234  0.68569985  0.51233581     0.36500
C1340       C  0.40031396  0.67316275  0.49459645     0.40100
C1341       C  0.34264701  0.71884757  0.51379792     0.39200
C1342       C  0.37466119  0.64105376  0.50081783     0.36100
C1343       C  0.33711174  0.64696445  0.44285343     0.36800
C1344       C  0.30345490  0.61200682  0.55615181     0.40100
N1345       N  0.33507015  0.73402726  0.51753248    -0.38000
N1346       N  0.30092582  0.68771489  0.51434767    -0.39600
N1347       N  0.41626288  0.66834769  0.48838696    -0.37300
N1348       N  0.38072627  0.62509258  0.49889741    -0.39700
N1349       N  0.33688903  0.64786611  0.58884833    -0.39500
N1350       N  0.29884105  0.60287840  0.57884905    -0.37100
N1351       N  0.30760020  0.60755761  0.41219594    -0.38200
N1352       N  0.34506835  0.65295530  0.41985268    -0.39800
C1353       C  0.26071645  0.52325340  0.52566531    -0.04800
C1354       C  0.26456301  0.51167881  0.49751375     0.09400
C1355       C  0.27008846  0.52120730  0.46807440    -0.02200
C1356       C  0.27075534  0.54205610  0.46639930    -0.00400
C1357       C  0.26589206  0.55354923  0.49410680    -0.04000
C1358       C  0.26223179  0.54405589  0.52422949     0.03000
C1359       C  0.26274449  0.48949111  0.49858059     0.09800
C1360       C  0.27507859  0.50951751  0.43945418     0.35700
C1361       C  0.26101334  0.55565960  0.55405184     0.39100
C1362       C  0.24744527  0.47999331  0.48131582    -0.04400
C1363       C  0.24651641  0.45910533  0.47977592     0.02800
C1364       C  0.26044707  0.44724692  0.49704894    -0.04000
C1365       C  0.27460371  0.45710684  0.51701414    -0.00200
C1366       C  0.27625558  0.47794645  0.51656685    -0.02800
C1367       C  0.23239396  0.49189959  0.46537128     0.36500
C1368       C  0.28685234  0.44610898  0.53976684     0.40100
C1369       C  0.23086610  0.45041588  0.46042103     0.39200
C1370       C  0.29195317  0.48755071  0.53476753     0.36100
C1371       C  0.25493319  0.51381734  0.55603941     0.36800
C1372       C  0.27663478  0.55170951  0.43621979     0.40100
N1373       N  0.21772168  0.44440087  0.44532969    -0.38000
N1374       N  0.22039630  0.50144071  0.45283077    -0.39600
N1375       N  0.29668791  0.43745156  0.55796660    -0.37300
N1376       N  0.30440413  0.49521171  0.54942853    -0.39700
N1377       N  0.27897288  0.50015768  0.41661961    -0.39500
N1378       N  0.28119808  0.55943412  0.41211203    -0.37100
N1379       N  0.26019226  0.56494710  0.57782659    -0.38200
N1380       N  0.25035210  0.50632224  0.58033259    -0.39800
C1381       C  0.59713083  0.22594496  0.61506429    -0.04800
C1382       C  0.60174908  0.20676499  0.60395686     0.09400
C1383       C  0.60428239  0.20336262  0.57018782    -0.02200
C1384       C  0.60275190  0.21914157  0.54761622    -0.00400
C1385       C  0.59859588  0.23856266  0.55866137    -0.04000
C1386       C  0.59508853  0.24164625  0.59252277     0.03000
C1387       C  0.60326325  0.18992578  0.62772777     0.09800
C1388       C  0.60852545  0.18348276  0.55875721     0.35700
C1389       C  0.58789617  0.26062570  0.60399428     0.39100
C1390       C  0.58619965  0.17933720  0.63680023    -0.04400
C1391       C  0.58756196  0.16345122  0.65909309     0.02800
C1392       C  0.60600117  0.15816937  0.67277745    -0.04000
C1393       C  0.62312556  0.16853057  0.66321378    -0.00200
C1394       C  0.62174484  0.18437827  0.64078322    -0.02800
C1395       C  0.56722664  0.18485858  0.62313238     0.36500
C1396       C  0.64206780  0.16331123  0.67727469     0.40100
C1397       C  0.57005690  0.15209916  0.66710790     0.39200
C1398       C  0.63929628  0.19518764  0.63136750     0.36100
C1399       C  0.59450940  0.22949043  0.64981965     0.36800
C1400       C  0.60542276  0.21497597  0.51320325     0.40100
N1401       N  0.55613158  0.14294961  0.67330397    -0.38000
N1402       N  0.55211325  0.18933725  0.61222601    -0.39600
N1403       N  0.65716322  0.15913069  0.68856660    -0.37300
N1404       N  0.65328157  0.20384914  0.62381464    -0.39700
N1405       N  0.61190664  0.16760134  0.54979193    -0.39500
N1406       N  0.60745532  0.21055343  0.48607499    -0.37100
N1407       N  0.58175004  0.27559970  0.61318453    -0.38200
N1408       N  0.59253981  0.23230444  0.67757833    -0.39800
C1409       C  0.63382548  0.33778116  0.49393236    -0.04800
C1410       C  0.64600933  0.34064605  0.52138002     0.09400
C1411       C  0.64270684  0.32921286  0.54965541    -0.02200
C1412       C  0.62813224  0.31418373  0.54976927    -0.00400
C1413       C  0.61801167  0.30893237  0.52034144    -0.04000
C1414       C  0.61965945  0.32244338  0.49355535     0.03000
C1415       C  0.66291130  0.35507856  0.51964325     0.09800
C1416       C  0.65463524  0.33271267  0.57860546     0.35700
C1417       C  0.60706125  0.32073235  0.46498167     0.39100
C1418       C  0.66172355  0.37391653  0.53417253    -0.04400
C1419       C  0.67781608  0.38729147  0.53224827     0.02800
C1420       C  0.69473756  0.38285678  0.51260051    -0.04000
C1421       C  0.69631702  0.36291853  0.50094979    -0.00200
C1422       C  0.68040040  0.34952369  0.50371875    -0.02800
C1423       C  0.64381834  0.37947716  0.55131065     0.36500
C1424       C  0.71451619  0.35510362  0.48766714     0.40100
C1425       C  0.67747249  0.40432329  0.55378267     0.39200
C1426       C  0.68203504  0.32967811  0.49024348     0.36100
C1427       C  0.63642466  0.35034310  0.46545484     0.36800
C1428       C  0.62239500  0.30612860  0.58116403     0.40100
N1429       N  0.67699414  0.41772173  0.57142638    -0.38000
N1430       N  0.62945691  0.38384275  0.56480885    -0.39600
N1431       N  0.72845966  0.34791106  0.47652434    -0.37300
N1432       N  0.68327157  0.31390022  0.47944147    -0.39700
N1433       N  0.66419356  0.33546827  0.60164646    -0.39500
N1434       N  0.61816151  0.30022028  0.60679554    -0.37100
N1435       N  0.59748948  0.31944434  0.44161463    -0.38200
N1436       N  0.63867055  0.36034493  0.44278763    -0.39800
C1437       C  0.38533279  0.21381552  0.58252484    -0.04800
C1438       C  0.38165374  0.22103508  0.61421273     0.09400
C1439       C  0.38206615  0.24152440  0.61989639    -0.02200
C1440       C  0.38617751  0.25481530  0.59402188    -0.00400
C1441       C  0.38974538  0.24780105  0.56159897    -0.04000
C1442       C  0.38943626  0.22692552  0.55646467     0.03000
C1443       C  0.37797594  0.20672106  0.64162764     0.09800
C1444       C  0.37827531  0.24891086  0.65268420     0.35700
C1445       C  0.39330148  0.21806129  0.52489963     0.39100
C1446       C  0.39327259  0.20194856  0.66368992    -0.04400
C1447       C  0.39090841  0.18629489  0.68619969     0.02800
C1448       C  0.37311243  0.17529523  0.68692913    -0.04000
C1449       C  0.35734945  0.18101172  0.66626964    -0.00200
C1450       C  0.35978948  0.19666173  0.64375127    -0.02800
C1451       C  0.41167999  0.21286265  0.66263377     0.36500
C1452       C  0.33846514  0.17105350  0.66852511     0.40100
C1453       C  0.40727053  0.18095488  0.70737137     0.39200
C1454       C  0.34367330  0.20231674  0.62233678     0.36100
C1455       C  0.38492063  0.19258707  0.57677570     0.36800
C1456       C  0.38752540  0.27561663  0.60197569     0.40100
N1457       N  0.42031337  0.17673154  0.72428278    -0.38000
N1458       N  0.42628820  0.22169262  0.66198560    -0.39600
N1459       N  0.32335779  0.16318633  0.67042361    -0.37300
N1460       N  0.33085637  0.20687831  0.60520248    -0.39700
N1461       N  0.37531441  0.25474719  0.67886756    -0.39500
N1462       N  0.38845866  0.29199822  0.60991489    -0.37100
N1463       N  0.39666090  0.20933660  0.50118223    -0.38200
N1464       N  0.38447066  0.17570457  0.57217942    -0.39800
C1465       C  0.35514592  0.33604963  0.52108592    -0.04800
C1466       C  0.34416925  0.33887913  0.49213390     0.09400
C1467       C  0.35066767  0.32973494  0.46299828    -0.02200
C1468       C  0.36679038  0.31648328  0.46365682    -0.00400
C1469       C  0.37514997  0.31050259  0.49404860    -0.04000
C1470       C  0.37119725  0.32270660  0.52151261     0.03000
C1471       C  0.32620539  0.35195601  0.49225854     0.09800
C1472       C  0.34064244  0.33375269  0.43232270     0.35700
C1473       C  0.38495560  0.32333002  0.54857274     0.39100
C1474       C  0.32665066  0.37082164  0.47772400    -0.04400
C1475       C  0.30949933  0.38273632  0.47695890     0.02800
C1476       C  0.29226432  0.37719235  0.49486472    -0.04000
C1477       C  0.29147787  0.35724695  0.50640963    -0.00200
C1478       C  0.30838301  0.34498311  0.50556546    -0.02800
C1479       C  0.34478624  0.37786385  0.46290209     0.36500
C1480       C  0.27304124  0.34844769  0.51697147     0.40100
C1481       C  0.30918254  0.39906247  0.45396685     0.39200
C1482       C  0.30734848  0.32483095  0.51772234     0.36100
C1483       C  0.34974954  0.34674367  0.55053762     0.36800
C1484       C  0.37632070  0.31146308  0.43297501     0.40100
N1485       N  0.30909258  0.41190127  0.43522973    -0.38000
N1486       N  0.35925138  0.38343958  0.45106656    -0.39600
N1487       N  0.25847619  0.34121258  0.52556951    -0.37300
N1488       N  0.30655002  0.30875580  0.52732821    -0.39700
N1489       N  0.33269681  0.33697038  0.40780961    -0.39500
N1490       N  0.38397788  0.30763563  0.40844911    -0.37100
N1491       N  0.39637648  0.32482245  0.56947692    -0.38200
N1492       N  0.34522911  0.35519562  0.57401226    -0.39800
C1493       C  0.51818015  0.29375965  0.49678729    -0.04800
C1494       C  0.50706712  0.27769522  0.50875118     0.09400
C1495       C  0.51714883  0.26127175  0.52200613    -0.02200
C1496       C  0.53801093  0.26118785  0.52439678    -0.00400
C1497       C  0.54941568  0.27694037  0.51111211    -0.04000
C1498       C  0.53905108  0.29305930  0.49660243     0.03000
C1499       C  0.48476007  0.27813875  0.50758907     0.09800
C1500       C  0.50594677  0.24427755  0.53321438     0.35700
C1501       C  0.54946407  0.30876173  0.47983789     0.39100
C1502       C  0.47464577  0.27872079  0.47725503    -0.04400
C1503       C  0.45387286  0.28048569  0.47643575     0.02800
C1504       C  0.44278113  0.27848414  0.50547723    -0.04000
C1505       C  0.45277679  0.27714539  0.53572618    -0.00200
C1506       C  0.47360097  0.27824575  0.53687063    -0.02800
C1507       C  0.48553221  0.27692046  0.44685314     0.36500
C1508       C  0.44171555  0.27491056  0.56581520     0.40100
C1509       C  0.44390503  0.28456173  0.44572798     0.39200
C1510       C  0.48353119  0.28006236  0.56819475     0.36100
C1511       C  0.50805526  0.31124613  0.48477026     0.36800
C1512       C  0.54722633  0.24495756  0.54177331     0.40100
N1513       N  0.43587959  0.28795636  0.42135133    -0.38000
N1514       N  0.49421681  0.27527770  0.42261838    -0.39600
N1515       N  0.43319824  0.27291095  0.59011415    -0.37300
N1516       N  0.49148602  0.28171321  0.59312460    -0.39700
N1517       N  0.49697293  0.23079056  0.54223480    -0.39500
N1518       N  0.55380065  0.23160330  0.55572726    -0.37100
N1519       N  0.55719049  0.32161098  0.46628825    -0.38200
N1520       N  0.49995594  0.32515355  0.47516500    -0.39800
C1521       C  0.60820116  0.81412728  0.34072444    -0.04800
C1522       C  0.61090937  0.81915919  0.37390978     0.09400
C1523       C  0.61735839  0.83833636  0.38225796    -0.02200
C1524       C  0.62035556  0.85266072  0.35761007    -0.00400
C1525       C  0.61631314  0.84809026  0.32436991    -0.04000
C1526       C  0.61048715  0.82855429  0.31609607     0.03000
C1527       C  0.60625920  0.80435268  0.40006666     0.09800
C1528       C  0.62057673  0.84339716  0.41637685     0.35700
C1529       C  0.60565326  0.82337988  0.28254517     0.39100
C1530       C  0.62155898  0.79465079  0.41695466    -0.04400
C1531       C  0.61705418  0.78051077  0.44110121     0.02800
C1532       C  0.59725021  0.77459118  0.44659324    -0.04000
C1533       C  0.58190212  0.78532188  0.43131423    -0.00200
C1534       C  0.58643691  0.80016490  0.40813756    -0.02800
C1535       C  0.64196907  0.79897824  0.40907642     0.36500
C1536       C  0.56153805  0.78190060  0.44017005     0.40100
C1537       C  0.63270962  0.77327250  0.46219946     0.39200
C1538       C  0.57071576  0.81119221  0.39238530     0.36100
C1539       C  0.60280401  0.79403584  0.33200736     0.36800
C1540       C  0.62780453  0.87201952  0.36665818     0.40100
N1541       N  0.64512989  0.76785622  0.47946423    -0.38000
N1542       N  0.65824554  0.80236543  0.40268441    -0.39600
N1543       N  0.54513699  0.77997500  0.44727752    -0.37300
N1544       N  0.55827322  0.82005995  0.37969231    -0.39700
N1545       N  0.62318178  0.84734344  0.44361464    -0.39500
N1546       N  0.63380402  0.88742276  0.37396962    -0.37100
N1547       N  0.60168716  0.81924681  0.25583626    -0.38200
N1548       N  0.59857835  0.77798798  0.32511007    -0.39800
C1549       C  0.67930384  0.87834928  0.13288724    -0.04800
C1550       C  0.68911239  0.89653982  0.12808377     0.09400
C1551       C  0.68387523  0.91305749  0.14735926    -0.02200
C1552       C  0.66900541  0.91142339  0.17129952    -0.00400
C1553       C  0.65901355  0.89326248  0.17603723    -0.04000
C1554       C  0.66418985  0.87673997  0.15656676     0.03000
C1555       C  0.70468699  0.89853869  0.10220719     0.09800
C1556       C  0.69369758  0.93187872  0.14230829     0.35700
C1557       C  0.65440151  0.85791170  0.16144509     0.39100
C1558       C  0.69934443  0.89919402  0.06884707    -0.04400
C1559       C  0.71394577  0.90123629  0.04437899     0.02800
C1560       C  0.73405081  0.90352400  0.05318691    -0.04000
C1561       C  0.73889956  0.90495915  0.08687342    -0.00200
C1562       C  0.72458622  0.90125709  0.11109280    -0.02800
C1563       C  0.67865012  0.89828145  0.05980919     0.36500
C1564       C  0.75780549  0.91299306  0.09674411     0.40100
C1565       C  0.70773650  0.90184763  0.01054785     0.39200
C1566       C  0.73030195  0.90055442  0.14531459     0.36100
C1567       C  0.68495669  0.86124056  0.11359721     0.36800
C1568       C  0.66358339  0.92876169  0.19025476     0.40100
N1569       N  0.70177307  0.90275498  0.98406940    -0.38000
N1570       N  0.66213266  0.89765002  0.05273408    -0.39600
N1571       N  0.77246791  0.92024891  0.10483792    -0.37300
N1572       N  0.73482790  0.89993659  0.17261981    -0.39700
N1573       N  0.70163673  0.94683814  0.13844297    -0.39500
N1574       N  0.65935945  0.94260738  0.20537779    -0.37100
N1575       N  0.64662842  0.84285888  0.16526712    -0.38200
N1576       N  0.68951170  0.84765297  0.09809740    -0.39800
C1577       C  0.59129651  0.03017108  0.27499737    -0.04800
C1578       C  0.60954399  0.02077616  0.28075453     0.09400
C1579       C  0.62655515  0.03231862  0.28621283    -0.02200
C1580       C  0.62549266  0.05316638  0.28454540    -0.00400
C1581       C  0.60743526  0.06258444  0.27674272    -0.04000
C1582       C  0.59027593  0.05093755  0.27241318     0.03000
C1583       C  0.61118967  0.99883048  0.27654348     0.09800
C1584       C  0.64535544  0.02265701  0.29183298     0.35700
C1585       C  0.57157489  0.06015714  0.26432615     0.39100
C1586       C  0.61179830  0.99086567  0.24464277    -0.04400
C1587       C  0.61267911  0.97026057  0.23989090     0.02800
C1588       C  0.61239601  0.95726903  0.26709854    -0.04000
C1589       C  0.61188335  0.96531490  0.29916107    -0.00200
C1590       C  0.61151952  0.98604254  0.30380643    -0.02800
C1591       C  0.61122116  0.00398888  0.21653507     0.36500
C1592       C  0.61070064  0.95236928  0.32740381     0.40100
C1593       C  0.61427136  0.96258632  0.20678741     0.39200
C1594       C  0.61109974  0.99424295  0.33661068     0.36100
C1595       C  0.57367153  0.01831220  0.27042483     0.36800
C1596       C  0.64333580  0.06477069  0.28831394     0.40100
N1597       N  0.61556951  0.95654232  0.18035556    -0.38000
N1598       N  0.61057443  0.01447723  0.19418498    -0.39600
N1599       N  0.60963083  0.94205268  0.34993492    -0.37300
N1600       N  0.61085048  0.00075548  0.36281858    -0.39700
N1601       N  0.66035769  0.01492746  0.29622695    -0.39500
N1602       N  0.65756558  0.07405606  0.29116362    -0.37100
N1603       N  0.55662420  0.06727112  0.25737018    -0.38200
N1604       N  0.55964430  0.00882711  0.26674598    -0.39800
C1605       C  0.60062888  0.18700625  0.37905350    -0.04800
C1606       C  0.60630937  0.20638799  0.37052250     0.09400
C1607       C  0.61372712  0.21013474  0.33887053    -0.02200
C1608       C  0.61607996  0.19448103  0.31620163    -0.00400
C1609       C  0.61010519  0.17503414  0.32448338    -0.04000
C1610       C  0.60193863  0.17154930  0.35591537     0.03000
C1611       C  0.60473469  0.22273067  0.39528157     0.09800
C1612       C  0.61861094  0.23022744  0.32953871     0.35700
C1613       C  0.59361812  0.15238236  0.36393692     0.39100
C1614       C  0.62147231  0.22848302  0.41345092    -0.04400
C1615       C  0.61963057  0.24218399  0.43938644     0.02800
C1616       C  0.60097118  0.25045690  0.44708648    -0.04000
C1617       C  0.58461470  0.24595507  0.42698008    -0.00200
C1618       C  0.58640305  0.23187466  0.40158048    -0.02800
C1619       C  0.64051195  0.21977680  0.40603422     0.36500
C1620       C  0.56614378  0.25642565  0.43139930     0.40100
C1621       C  0.63671679  0.24658421  0.45952139     0.39200
C1622       C  0.56933643  0.22665726  0.38200019     0.36100
C1623       C  0.59330131  0.18296499  0.41174353     0.36800
C1624       C  0.62503948  0.19842766  0.28465302     0.40100
N1625       N  0.65032999  0.25006882  0.47562578    -0.38000
N1626       N  0.65569184  0.21287582  0.39990954    -0.39600
N1627       N  0.55141707  0.26491409  0.43419765    -0.37300
N1628       N  0.55569173  0.22247472  0.36644149    -0.39700
N1629       N  0.62231890  0.24631419  0.32213122    -0.39500
N1630       N  0.63228800  0.20163312  0.25956638    -0.37100
N1631       N  0.58674480  0.13718115  0.37015379    -0.38200
N1632       N  0.58750106  0.17963140  0.43780052    -0.39800
C1633       C  0.66322472  0.11688252  0.12345796    -0.04800
C1634       C  0.68315743  0.11878067  0.13281818     0.09400
C1635       C  0.68779638  0.12430616  0.16515829    -0.02200
C1636       C  0.67263590  0.12762114  0.18826844    -0.00400
C1637       C  0.65249958  0.12525410  0.17935197    -0.04000
C1638       C  0.64795586  0.12013904  0.14644575     0.03000
C1639       C  0.69922407  0.11611219  0.10789706     0.09800
C1640       C  0.70829781  0.12662967  0.17457753     0.35700
C1641       C  0.62764782  0.11767796  0.13603765     0.39100
C1642       C  0.70550860  0.13239931  0.08925935    -0.04400
C1643       C  0.71957130  0.12989723  0.06414452     0.02800
C1644       C  0.72805146  0.11107956  0.05784619    -0.04000
C1645       C  0.72155187  0.09470453  0.07657645    -0.00200
C1646       C  0.70746803  0.09731171  0.10182581    -0.02800
C1647       C  0.69726299  0.15183028  0.09582351     0.36500
C1648       C  0.72890916  0.07502272  0.06978018     0.40100
C1649       C  0.72347773  0.14649110  0.04285156     0.39200
C1650       C  0.70162301  0.08070033  0.12202240     0.36100
C1651       C  0.65848957  0.11143804  0.08998098     0.36800
C1652       C  0.67795549  0.13402098  0.22101557     0.40100
N1653       N  0.72539225  0.16022094  0.02635488    -0.38000
N1654       N  0.69076198  0.16732510  0.10118510    -0.39600
N1655       N  0.73416107  0.05903464  0.06469339    -0.37300
N1656       N  0.69710092  0.06749924  0.13838434    -0.39700
N1657       N  0.72466305  0.12846260  0.18203359    -0.39500
N1658       N  0.68224346  0.13913679  0.24711315    -0.37100
N1659       N  0.61149117  0.11574527  0.12745227    -0.38200
N1660       N  0.65481205  0.10706430  0.06326698    -0.39800
C1661       C  0.51718061  0.87267787  0.24467314    -0.04800
C1662       C  0.50789673  0.88308635  0.21902828     0.09400
C1663       C  0.51947133  0.89266261  0.19510359    -0.02200
C1664       C  0.54025277  0.89279493  0.19790510    -0.00400
C1665       C  0.54948633  0.88342373  0.22480907    -0.04000
C1666       C  0.53788606  0.87271401  0.24743883     0.03000
C1667       C  0.48587900  0.88470844  0.21852868     0.09800
C1668       C  0.50993026  0.90295732  0.16829002     0.35700
C1669       C  0.54728526  0.86157987  0.27353549     0.39100
C1670       C  0.47645104  0.89911987  0.23798261    -0.04400
C1671       C  0.45569976  0.89974134  0.23990308     0.02800
C1672       C  0.44414434  0.88532695  0.22352668    -0.04000
C1673       C  0.45367137  0.87124069  0.20322096    -0.00200
C1674       C  0.47445572  0.87104271  0.20065457    -0.02800
C1675       C  0.48819804  0.91282302  0.25717149     0.36500
C1676       C  0.44230607  0.85623892  0.18624553     0.40100
C1677       C  0.44631293  0.91548785  0.25842196     0.39200
C1678       C  0.48421525  0.85620336  0.18076479     0.36100
C1679       C  0.50531090  0.86240509  0.26880974     0.36800
C1680       C  0.55199613  0.90346925  0.17409508     0.40100
N1681       N  0.43880793  0.92807903  0.27305367    -0.38000
N1682       N  0.49756581  0.92357943  0.27279519    -0.39600
N1683       N  0.43328101  0.84422526  0.17271690    -0.37300
N1684       N  0.49204326  0.84434736  0.16498145    -0.39700
N1685       N  0.50232995  0.91117674  0.14687302    -0.39500
N1686       N  0.56139505  0.91196525  0.15510537    -0.37100
N1687       N  0.55483591  0.85265859  0.29422511    -0.38200
N1688       N  0.49578151  0.85430380  0.28808231    -0.39800
C1689       C  0.38192028  0.82061225  0.36949473    -0.04800
C1690       C  0.38173572  0.80084298  0.35853294     0.09400
C1691       C  0.37966882  0.79686311  0.32483886    -0.02200
C1692       C  0.37800052  0.81255441  0.30208145    -0.00400
C1693       C  0.37847443  0.83254741  0.31281958    -0.04000
C1694       C  0.38033619  0.83637976  0.34691703     0.03000
C1695       C  0.38411089  0.78427813  0.38274025     0.09800
C1696       C  0.37945559  0.77650939  0.31362198     0.35700
C1697       C  0.38149796  0.85651481  0.35906562     0.39100
C1698       C  0.36744259  0.77534526  0.39699480    -0.04400
C1699       C  0.36967960  0.76132985  0.42242322     0.02800
C1700       C  0.38874902  0.75620649  0.43412160    -0.04000
C1701       C  0.40542722  0.76398652  0.41762784    -0.00200
C1702       C  0.40308442  0.77806359  0.39234427    -0.02800
C1703       C  0.34790778  0.78089124  0.38576087     0.36500
C1704       C  0.42509790  0.75702047  0.42533487     0.40100
C1705       C  0.35212826  0.75292683  0.43705804     0.39200
C1706       C  0.42024660  0.78627605  0.37610198     0.36100
C1707       C  0.38408832  0.82468384  0.40422055     0.36800
C1708       C  0.37550417  0.80791272  0.26765387     0.40100
N1709       N  0.33785508  0.74638559  0.44811519    -0.38000
N1710       N  0.33232719  0.78524633  0.37669339    -0.39600
N1711       N  0.44104857  0.75172964  0.43030763    -0.37300
N1712       N  0.43390604  0.79280385  0.36303417    -0.39700
N1713       N  0.37930502  0.76025177  0.30476297    -0.39500
N1714       N  0.37354713  0.80412838  0.24020259    -0.37100
N1715       N  0.38245540  0.87253524  0.36893435    -0.38200
N1716       N  0.38586004  0.82783505  0.43192285    -0.39800
C1717       C  0.28037812  0.90792727  0.09041203    -0.04800
C1718       C  0.28928550  0.88916977  0.09369132     0.09400
C1719       C  0.28293184  0.87339275  0.07373435    -0.02200
C1720       C  0.26780851  0.87634712  0.05049877    -0.00400
C1721       C  0.25936037  0.89536580  0.04628643    -0.04000
C1722       C  0.26542334  0.91100904  0.06689817     0.03000
C1723       C  0.30522107  0.88596311  0.11857615     0.09800
C1724       C  0.29249528  0.85426760  0.07636115     0.35700
C1725       C  0.25573452  0.93008518  0.06515902     0.39100
C1726       C  0.30062515  0.87758816  0.14922102    -0.04400
C1727       C  0.31546786  0.87504990  0.17313037     0.02800
C1728       C  0.33513370  0.88097369  0.16665888    -0.04000
C1729       C  0.33974625  0.88894749  0.13543691    -0.00200
C1730       C  0.32483091  0.89142252  0.11159536    -0.02800
C1731       C  0.28047276  0.87174764  0.15616512     0.36500
C1732       C  0.35964937  0.89539264  0.12800921     0.40100
C1733       C  0.31045997  0.86589323  0.20412482     0.39200
C1734       C  0.32955489  0.89983859  0.07987350     0.36100
C1735       C  0.28665644  0.92408478  0.11133251     0.36800
C1736       C  0.26202223  0.86009683  0.02930141     0.40100
N1737       N  0.30642168  0.85854484  0.22880549    -0.38000
N1738       N  0.26437193  0.86709852  0.16150269    -0.39600
N1739       N  0.37550743  0.90053329  0.12193215    -0.37300
N1740       N  0.33324046  0.90658077  0.05457006    -0.39700
N1741       N  0.30021437  0.83904646  0.07832120    -0.39500
N1742       N  0.25745704  0.84723998  0.01218736    -0.37100
N1743       N  0.24815170  0.94541083  0.06465840    -0.38200
N1744       N  0.29169649  0.93699399  0.12795507    -0.39800
C1745       C  0.46775893  0.11879320  0.22193542    -0.04800
C1746       C  0.47777553  0.13178692  0.24324414     0.09400
C1747       C  0.46698808  0.14290203  0.26636384    -0.02200
C1748       C  0.44646795  0.14007433  0.26964446    -0.00400
C1749       C  0.43651784  0.12632527  0.24935904    -0.04000
C1750       C  0.44719336  0.11605036  0.22494640     0.03000
C1751       C  0.49985518  0.13167080  0.24449786     0.09800
C1752       C  0.47715636  0.15690228  0.28734264     0.35700
C1753       C  0.43733963  0.10154536  0.20453056     0.39100
C1754       C  0.51115480  0.14321271  0.22275221    -0.04400
C1755       C  0.53199056  0.14293640  0.22454678     0.02800
C1756       C  0.54170936  0.13062958  0.24758490    -0.04000
C1757       C  0.53016761  0.11914956  0.26949698    -0.00200
C1758       C  0.50942116  0.11966900  0.26780475    -0.02800
C1759       C  0.50129664  0.15524388  0.19835086     0.36500
C1760       C  0.53941377  0.10648081  0.29375955     0.40100
C1761       C  0.54328779  0.15607833  0.20371136     0.39200
C1762       C  0.49777901  0.10749984  0.28979642     0.36100
C1763       C  0.47882737  0.10763891  0.19779906     0.36800
C1764       C  0.43564825  0.15120465  0.29419459     0.40100
N1765       N  0.55229144  0.16669472  0.18729348    -0.38000
N1766       N  0.49345962  0.16472713  0.17867303    -0.39600
N1767       N  0.54666232  0.09645807  0.31333641    -0.37300
N1768       N  0.48845915  0.09779116  0.30722824    -0.39700
N1769       N  0.48524636  0.16811237  0.30402741    -0.39500
N1770       N  0.42702120  0.15999039  0.31386726    -0.37100
N1771       N  0.42950934  0.08987167  0.18838738    -0.38200
N1772       N  0.48772780  0.09880519  0.17854102    -0.39800
C1773       C  0.37982254  0.97324942  0.30673731    -0.04800
C1774       C  0.37164324  0.98621293  0.28324199     0.09400
C1775       C  0.36368325  0.97840148  0.25401622    -0.02200
C1776       C  0.36407631  0.95786332  0.24813077    -0.00400
C1777       C  0.37313963  0.94493156  0.27086080    -0.04000
C1778       C  0.38080339  0.95271054  0.30042169     0.03000
C1779       C  0.37269345  0.00822533  0.28775874     0.09800
C1780       C  0.35577762  0.99162724  0.22929375     0.35700
C1781       C  0.39079463  0.93982327  0.32347791     0.39100
C1782       C  0.39074926  0.01814699  0.28275791    -0.04400
C1783       C  0.39138581  0.03899773  0.28221449     0.02800
C1784       C  0.37393288  0.05018541  0.28669179    -0.04000
C1785       C  0.35605485  0.04022391  0.29363913    -0.00200
C1786       C  0.35545508  0.01932953  0.29409043    -0.02800
C1787       C  0.40863122  0.00682939  0.27718970     0.36500
C1788       C  0.33799101  0.05136225  0.29846313     0.40100
C1789       C  0.41011167  0.04890679  0.27710413     0.39200
C1790       C  0.33694522  0.00920435  0.30001012     0.36100
C1791       C  0.38783903  0.98116568  0.33694791     0.36800
C1792       C  0.35493801  0.95005506  0.21866817     0.40100
N1793       N  0.42504643  0.05680042  0.27300927    -0.38000
N1794       N  0.42286189  0.99771798  0.27298301    -0.39600
N1795       N  0.32358464  0.06025936  0.30228829    -0.37300
N1796       N  0.32214059  0.00116219  0.30456885    -0.39700
N1797       N  0.34955402  0.00219184  0.20954058    -0.39500
N1798       N  0.34761719  0.94379065  0.19524929    -0.37100
N1799       N  0.39887901  0.92955790  0.34176277    -0.38200
N1800       N  0.39434652  0.98748381  0.36097322    -0.39800
C1801       C  0.36722107  0.19526217  0.35983322    -0.04800
C1802       C  0.37700329  0.19172204  0.38975175     0.09400
C1803       C  0.38314481  0.17234820  0.39752734    -0.02200
C1804       C  0.38044146  0.15677380  0.37485548    -0.00400
C1805       C  0.37116009  0.16036154  0.34423581    -0.04000
C1806       C  0.36418723  0.17969353  0.33729653     0.03000
C1807       C  0.38187192  0.20862231  0.41224717     0.09800
C1808       C  0.39282581  0.16861909  0.42863575     0.35700
C1809       C  0.35391136  0.18373376  0.30685405     0.39100
C1810       C  0.36715441  0.21727861  0.43197916    -0.04400
C1811       C  0.37170489  0.23359083  0.45220864     0.02800
C1812       C  0.39124521  0.24114023  0.45357665    -0.04000
C1813       C  0.40618611  0.23155795  0.43537592    -0.00200
C1814       C  0.40139846  0.21578161  0.41411154    -0.02800
C1815       C  0.34741700  0.20902742  0.43211193     0.36500
C1816       C  0.42665499  0.23708313  0.43929901     0.40100
C1817       C  0.35649179  0.24175007  0.47329345     0.39200
C1818       C  0.41662960  0.20679276  0.39405199     0.36100
C1819       C  0.36080228  0.21514692  0.35179707     0.36800
C1820       C  0.38844999  0.13741495  0.38248394     0.40100
N1821       N  0.34445513  0.24830627  0.49020927    -0.38000
N1822       N  0.33168515  0.20240801  0.43242785    -0.39600
N1823       N  0.44329211  0.24041934  0.44217599    -0.37300
N1824       N  0.42872314  0.19954496  0.37805246    -0.39700
N1825       N  0.40062615  0.16577416  0.45340411    -0.39500
N1826       N  0.39498192  0.12204918  0.38869616    -0.37100
N1827       N  0.34577886  0.18696697  0.28251386    -0.38200
N1828       N  0.35568658  0.23101443  0.34542162    -0.39800
C1829       C  0.28216873  0.12623426  0.09148433    -0.04800
C1830       C  0.28084278  0.11457092  0.12010437     0.09400
C1831       C  0.26494023  0.10121035  0.12345360    -0.02200
C1832       C  0.25128005  0.09872192  0.09761753    -0.00400
C1833       C  0.25416546  0.10853246  0.06748393    -0.04000
C1834       C  0.26882358  0.12330364  0.06535641     0.03000
C1835       C  0.29671015  0.11581258  0.14585885     0.09800
C1836       C  0.26277535  0.08981528  0.15327528     0.35700
C1837       C  0.26985833  0.13592553  0.03671155     0.39100
C1838       C  0.29306537  0.12476140  0.17653067    -0.04400
C1839       C  0.30804949  0.12544644  0.20068359     0.02800
C1840       C  0.32718430  0.11804763  0.19384989    -0.04000
C1841       C  0.33094859  0.10976455  0.16255871    -0.00200
C1842       C  0.31565610  0.10812387  0.13919543    -0.02800
C1843       C  0.27390264  0.13343443  0.18310633     0.36500
C1844       C  0.35042656  0.10235005  0.15442436     0.40100
C1845       C  0.30380616  0.13421507  0.23232408     0.39200
C1846       C  0.31923844  0.09797326  0.10842985     0.36100
C1847       C  0.29724497  0.14136500  0.08908511     0.36800
C1848       C  0.23404178  0.08632335  0.10216634     0.40100
N1849       N  0.30038239  0.14113735  0.25761643    -0.38000
N1850       N  0.25860135  0.14034443  0.18831451    -0.39600
N1851       N  0.36597694  0.09657258  0.14768904    -0.37300
N1852       N  0.32194705  0.08979425  0.08394091    -0.39700
N1853       N  0.26098894  0.08078635  0.17714679    -0.39500
N1854       N  0.22019124  0.07656649  0.10569227    -0.37100
N1855       N  0.27090592  0.14599032  0.01387139    -0.38200
N1856       N  0.30925995  0.15345723  0.08726656    -0.39800
C1857       C  0.81789888  0.60857254  0.37766214    -0.04800
C1858       C  0.80347704  0.62362634  0.37908568     0.09400
C1859       C  0.80412536  0.63932660  0.35630727    -0.02200
C1860       C  0.81884764  0.63974087  0.33186129    -0.00400
C1861       C  0.83345503  0.62480580  0.33067698    -0.04000
C1862       C  0.83288921  0.60920977  0.35377144     0.03000
C1863       C  0.78716644  0.62222730  0.40379115     0.09800
C1864       C  0.78951880  0.65498305  0.35784460     0.35700
C1865       C  0.84696738  0.59306880  0.35182538     0.39100
C1866       C  0.79123940  0.62466556  0.43743476    -0.04400
C1867       C  0.77649431  0.62095566  0.46104142     0.02800
C1868       C  0.75735934  0.61507789  0.45118774    -0.04000
C1869       C  0.75312995  0.61342521  0.41726164    -0.00200
C1870       C  0.76796563  0.61693435  0.39378123    -0.02800
C1871       C  0.81070977  0.63108722  0.44773592     0.36500
C1872       C  0.73369502  0.60729512  0.40630407     0.40100
C1873       C  0.78119408  0.62384493  0.49528257     0.39200
C1874       C  0.76353098  0.61484030  0.35918697     0.36100
C1875       C  0.81693132  0.59205621  0.40031518     0.36800
C1876       C  0.81891937  0.65558436  0.30793277     0.40100
N1877       N  0.78584143  0.62641906  0.52219225    -0.38000
N1878       N  0.82623010  0.63617484  0.45598827    -0.39600
N1879       N  0.71820479  0.60242789  0.39754214    -0.37300
N1880       N  0.75999729  0.61340524  0.33156309    -0.39700
N1881       N  0.77781366  0.66743258  0.35886603    -0.39500
N1882       N  0.81889664  0.66812438  0.28866291    -0.37100
N1883       N  0.85806746  0.58008919  0.35031198    -0.54200
N1884       N  0.81607497  0.57898020  0.41852488    -0.39800
C1885       C  0.90211093  0.69260017  0.15469079    -0.04800
C1886       C  0.88716680  0.69750424  0.13208114     0.09400
C1887       C  0.86881220  0.68768255  0.13359079    -0.02200
C1888       C  0.86542627  0.67300115  0.15756494    -0.00400
C1889       C  0.88026727  0.66833915  0.18067819    -0.04000
C1890       C  0.89862509  0.67830673  0.17912457     0.03000
C1891       C  0.89101557  0.71266701  0.10604831     0.09800
C1892       C  0.85346031  0.69268556  0.11025861     0.35700
C1893       C  0.91434988  0.67335220  0.20183226     0.39100
C1894       C  0.89487419  0.70665312  0.07372064    -0.04400
C1895       C  0.89820564  0.72080737  0.04886123     0.02800
C1896       C  0.89741001  0.74149822  0.05607428    -0.04000
C1897       C  0.89568366  0.74712805  0.08957403    -0.00200
C1898       C  0.89176942  0.73290000  0.11401266    -0.02800
C1899       C  0.89549241  0.68565627  0.06610349     0.36500
C1900       C  0.89929558  0.76737612  0.09971035     0.40100
C1901       C  0.90293448  0.71328605  0.01661084     0.39200
C1902       C  0.88840572  0.73909073  0.14758123     0.36100
C1903       C  0.92132456  0.70192250  0.15219298     0.36800
C1904       C  0.84652751  0.66300900  0.15872729     0.40100
N1905       N  0.90711449  0.70644296  0.99156056    -0.38000
N1906       N  0.89595658  0.66894467  0.06002207    -0.39600
N1907       N  0.90219790  0.78346751  0.10807758    -0.37300
N1908       N  0.88570584  0.74397082  0.17436956    -0.39700
N1909       N  0.84131958  0.69671124  0.09147506    -0.39500
N1910       N  0.83142522  0.65505987  0.15948864    -0.37100
N1911       N  0.92690372  0.66949988  0.21995522    -0.38200
N1912       N  0.93665054  0.70933366  0.15012444    -0.39800
C1913       C  0.01485130  0.60025292  0.25866521    -0.04800
C1914       C  0.00534847  0.61786378  0.26841497     0.09400
C1915       C  0.01672133  0.63449718  0.27722361    -0.02200
C1916       C  0.03748446  0.63377028  0.27521526    -0.00400
C1917       C  0.04701802  0.61646077  0.26384815    -0.04000
C1918       C  0.03557638  0.59961913  0.25587208     0.03000
C1919       C  0.98332273  0.61928999  0.26708316     0.09800
C1920       C  0.00698087  0.65256144  0.28751274     0.35700
C1921       C  0.04503955  0.58157280  0.24474116     0.39100
C1922       C  0.97197526  0.61844496  0.29597352    -0.04400
C1923       C  0.95117735  0.61950091  0.29436466     0.02800
C1924       C  0.94155948  0.62110769  0.26365613    -0.04000
C1925       C  0.95311091  0.62234289  0.23477580    -0.00200
C1926       C  0.97384558  0.62152001  0.23657495    -0.02800
C1927       C  0.98177739  0.61623547  0.32733459     0.36500
C1928       C  0.94380896  0.62504145  0.20304654     0.40100
C1929       C  0.93979619  0.61832103  0.32434941     0.39200
C1930       C  0.98553261  0.62313100  0.20692026     0.36100
C1931       C  0.00320564  0.58280037  0.25134742     0.36800
C1932       C  0.04891765  0.65126341  0.28309262     0.40100
N1933       N  0.93080268  0.61744230  0.34837980    -0.38000
N1934       N  0.98966770  0.61452386  0.35230646    -0.39600
N1935       N  0.93642186  0.62721862  0.17774448    -0.37300
N1936       N  0.99485022  0.62441738  0.18328859    -0.39700
N1937       N  0.99919332  0.66694612  0.29581695    -0.39500
N1938       N  0.05808012  0.66519831  0.28933172    -0.37100
N1939       N  0.05247857  0.56718858  0.23558447    -0.38200
N1940       N  0.99389678  0.56887712  0.24565514    -0.39800
C1941       C  0.21616452  0.62978983  0.40113942    -0.04800
C1942       C  0.20664993  0.61405228  0.38507711     0.09400
C1943       C  0.21206251  0.59444490  0.39245372    -0.02200
C1944       C  0.22638937  0.59049220  0.41672324    -0.00400
C1945       C  0.23627593  0.60624809  0.43290713    -0.04000
C1946       C  0.23095380  0.62600758  0.42469518     0.03000
C1947       C  0.19001966  0.61802443  0.36176317     0.09800
C1948       C  0.20267838  0.57824541  0.37503164     0.35700
C1949       C  0.23992170  0.64271471  0.44122855     0.39100
C1950       C  0.19383754  0.62430292  0.32947976    -0.04400
C1951       C  0.17815780  0.62678994  0.30706259     0.02800
C1952       C  0.15841289  0.62315817  0.31686641    -0.04000
C1953       C  0.15462655  0.61786289  0.34988448    -0.00200
C1954       C  0.17037588  0.61520049  0.37205662    -0.02800
C1955       C  0.21398487  0.62804238  0.31929478     0.36500
C1956       C  0.13463545  0.61429009  0.36106667     0.40100
C1957       C  0.18246862  0.63330925  0.27398909     0.39200
C1958       C  0.16643553  0.60918660  0.40553440     0.36100
C1959       C  0.21035506  0.64997337  0.39382270     0.36800
C1960       C  0.23019619  0.57003922  0.42509916     0.40100
N1961       N  0.18594992  0.63848413  0.24761270    -0.38000
N1962       N  0.23005106  0.63117328  0.31129316    -0.39600
N1963       N  0.11871632  0.61149666  0.37016161    -0.37300
N1964       N  0.16338398  0.60430532  0.43220530    -0.39700
N1965       N  0.19523861  0.56534096  0.36109882    -0.39500
N1966       N  0.23206583  0.55346235  0.43136401    -0.37100
N1967       N  0.24714648  0.65624223  0.45376202    -0.38200
N1968       N  0.20570289  0.66604488  0.38789115    -0.39800
C1969       C  0.12843144  0.68557449  0.13419561    -0.04800
C1970       C  0.10993613  0.69310744  0.12426841     0.09400
C1971       C  0.09246466  0.68475291  0.13687260    -0.02200
C1972       C  0.09347289  0.66939631  0.16010763    -0.00400
C1973       C  0.11196853  0.66201596  0.17035409    -0.04000
C1974       C  0.12942797  0.66968810  0.15655277     0.03000
C1975       C  0.10869722  0.70901762  0.09892018     0.09800
C1976       C  0.07344740  0.69179088  0.12545896     0.35700
C1977       C  0.14836422  0.66121422  0.16528668     0.39100
C1978       C  0.11014927  0.70402306  0.06556186    -0.04400
C1979       C  0.10809841  0.71870365  0.04129924     0.02800
C1980       C  0.10407779  0.73856737  0.05015125    -0.04000
C1981       C  0.10267058  0.74350648  0.08385050    -0.00200
C1982       C  0.10515031  0.72880279  0.10805624    -0.02800
C1983       C  0.11355272  0.68357405  0.05621619     0.36500
C1984       C  0.09755785  0.76347275  0.09376591     0.40100
C1985       C  0.11083133  0.71301819  0.00746044     0.39200
C1986       C  0.10380643  0.73393175  0.14246764     0.36100
C1987       C  0.14639774  0.69437343  0.12167633     0.36800
C1988       C  0.07544392  0.66053877  0.17241053     0.40100
N1989       N  0.11331562  0.70730504  0.98110164    -0.38000
N1990       N  0.11623836  0.66727546  0.04878996    -0.39600
N1991       N  0.09339795  0.77938050  0.10164417    -0.37300
N1992       N  0.10275108  0.73799522  0.16993914    -0.39700
N1993       N  0.05831030  0.69740563  0.11621420    -0.39500
N1994       N  0.06111354  0.65332790  0.18208786    -0.37100
N1995       N  0.16344514  0.65426368  0.17194200    -0.38200
N1996       N  0.16072457  0.70150544  0.11184018    -0.39800
C1997       C  0.88342942  0.52512864  0.23076789    -0.04800
C1998       C  0.86455567  0.51683038  0.22612922     0.09400
C1999       C  0.84802921  0.52931935  0.22227786    -0.02200
C2000       C  0.85025389  0.55004846  0.22440842    -0.00400
C2001       C  0.86911026  0.55834817  0.22994052    -0.04000
C2002       C  0.88576611  0.54578448  0.23198068     0.03000
C2003       C  0.86224596  0.49485080  0.22682627     0.09800
C2004       C  0.82868078  0.52076034  0.21702436     0.35700
C2005       C  0.90544134  0.55408804  0.23483096     0.39100
C2006       C  0.85549501  0.48551151  0.25557370    -0.04400
C2007       C  0.85611918  0.46475601  0.25822209     0.02800
C2008       C  0.86378110  0.45319337  0.23226884    -0.04000
C2009       C  0.86941925  0.46250436  0.20272813    -0.00200
C2010       C  0.86868206  0.48329613  0.20008919    -0.02800
C2011       C  0.84873589  0.49733546  0.28303361     0.36500
C2012       C  0.87712433  0.45089617  0.17572850     0.40100
C2013       C  0.84887507  0.45531211  0.28779119     0.39200
C2014       C  0.87545151  0.49294196  0.17044196     0.36100
C2015       C  0.90040075  0.51232339  0.23541057     0.36800
C2016       C  0.83299770  0.56268699  0.22256773     0.40100
N2017       N  0.84310042  0.44775025  0.31132131    -0.38000
N2018       N  0.84335486  0.50676579  0.30493654    -0.39600
N2019       N  0.88328564  0.44168058  0.15414134    -0.37300
N2020       N  0.88098753  0.50070796  0.14694486    -0.39700
N2021       N  0.81324160  0.51390119  0.21294604    -0.39500
N2022       N  0.81921610  0.57276109  0.22115811    -0.37100
N2023       N  0.92112961  0.56070683  0.23691546    -0.38200
N2024       N  0.91386973  0.50205435  0.23921314    -0.39800
C2025       C  0.81828280  0.40056915  0.37907108    -0.04800
C2026       C  0.79869902  0.39507077  0.37199123     0.09400
C2027       C  0.79423187  0.38605751  0.34177001    -0.02200
C2028       C  0.80925041  0.38282322  0.31840520    -0.00400
C2029       C  0.82892466  0.38870288  0.32508343    -0.04000
C2030       C  0.83333849  0.39743855  0.35582518     0.03000
C2031       C  0.78292566  0.39821431  0.39707251     0.09800
C2032       C  0.77410333  0.38014227  0.33479531     0.35700
C2033       C  0.85318385  0.40408736  0.36331519     0.39100
C2034       C  0.77182924  0.41588826  0.39749141    -0.04400
C2035       C  0.75761717  0.41914472  0.42222838     0.02800
C2036       C  0.75463425  0.40481910  0.44684392    -0.04000
C2037       C  0.76626010  0.38742743  0.44689960    -0.00200
C2038       C  0.77999256  0.38395210  0.42169404    -0.02800
C2039       C  0.77533702  0.43083145  0.37273213     0.36500
C2040       C  0.76569701  0.37409571  0.47467858     0.40100
C2041       C  0.74642131  0.43739338  0.42260057     0.39200
C2042       C  0.79153351  0.36587499  0.42147096     0.36100
C2043       C  0.82288134  0.40974195  0.41029007     0.36800
C2044       C  0.80440390  0.37306956  0.28779292     0.40100
N2045       N  0.73775183  0.45213405  0.42248100    -0.38000
N2046       N  0.77822456  0.44275415  0.35299999    -0.39600
N2047       N  0.76592526  0.36372877  0.49720953    -0.37300
N2048       N  0.80074043  0.35146030  0.42118377    -0.39700
N2049       N  0.75802643  0.37545905  0.32929151    -0.39500
N2050       N  0.80049255  0.36527762  0.26339991    -0.37100
N2051       N  0.86898383  0.40942006  0.36939774    -0.38200
N2052       N  0.82659657  0.41707357  0.43514486    -0.39800
C2053       C  0.86324971  0.31124498  0.15640415    -0.04800
C2054       C  0.87613742  0.31308396  0.12946602     0.09400
C2055       C  0.88742244  0.33044484  0.12576029    -0.02200
C2056       C  0.88629147  0.34566538  0.14932565    -0.00400
C2057       C  0.87333598  0.34392190  0.17636056    -0.04000
C2058       C  0.86163308  0.32671342  0.17953598     0.03000
C2059       C  0.87804230  0.29673810  0.10486752     0.09800
C2060       C  0.90030402  0.33257024  0.09762894     0.35700
C2061       C  0.84740685  0.32519114  0.20592880     0.39100
C2062       C  0.86611098  0.29663091  0.07656879    -0.04400
C2063       C  0.86897032  0.28208440  0.05221802     0.02800
C2064       C  0.88451809  0.26825556  0.05516992    -0.04000
C2065       C  0.89518234  0.26724668  0.08484022    -0.00200
C2066       C  0.89211378  0.28160139  0.10947148    -0.02800
C2067       C  0.85098932  0.31160139  0.07250899     0.36500
C2068       C  0.90863079  0.25093847  0.09065417     0.40100
C2069       C  0.85581478  0.28123609  0.02422585     0.39200
C2070       C  0.90327485  0.28077516  0.13973610     0.36100
C2071       C  0.85169870  0.29337321  0.16029820     0.36800
C2072       C  0.89917919  0.36270305  0.14639497     0.40100
N2073       N  0.84529534  0.28047007  0.00193749    -0.38000
N2074       N  0.83895097  0.32359265  0.06937350    -0.39600
N2075       N  0.91932860  0.23791144  0.09544045    -0.37300
N2076       N  0.91203608  0.28014425  0.16404013    -0.39700
N2077       N  0.91048983  0.33428566  0.07508732    -0.39500
N2078       N  0.90953267  0.37623392  0.14415294    -0.37100
N2079       N  0.83596347  0.32408908  0.22686281    -0.38200
N2080       N  0.84253881  0.27907210  0.16346828    -0.39800
C2081       C  0.13496418  0.48002631  0.25704543    -0.04800
C2082       C  0.12791713  0.49043479  0.22952755     0.09400
C2083       C  0.12083030  0.47996545  0.20205219    -0.02200
C2084       C  0.11881480  0.45924078  0.20347558    -0.00400
C2085       C  0.12378422  0.44905190  0.23252019    -0.04000
C2086       C  0.13274584  0.45937783  0.25870157     0.03000
C2087       C  0.12516700  0.51227217  0.23159640     0.09800
C2088       C  0.11475076  0.49064631  0.17295868     0.35700
C2089       C  0.13944510  0.44879525  0.28757106     0.39100
C2090       C  0.13766989  0.52527844  0.21449417    -0.04400
C2091       C  0.13427000  0.54584206  0.21576159     0.02800
C2092       C  0.11900883  0.55354816  0.23574626    -0.04000
C2093       C  0.10703018  0.54039924  0.25398089    -0.00200
C2094       C  0.10969045  0.51986091  0.25096529    -0.02800
C2095       C  0.15427104  0.51748370  0.19619966     0.36500
C2096       C  0.09184577  0.54779531  0.27587218     0.40100
C2097       C  0.14696805  0.55901498  0.19732830     0.39200
C2098       C  0.09630920  0.50642385  0.26756464     0.36100
C2099       C  0.14378695  0.49073511  0.28414392     0.36800
C2100       C  0.11032613  0.44867289  0.17595880     0.40100
N2101       N  0.15702349  0.56952091  0.18247644    -0.38000
N2102       N  0.16759890  0.51128923  0.18177205    -0.39600
N2103       N  0.07992189  0.55355800  0.29377280    -0.37300
N2104       N  0.08563577  0.49567264  0.28063941    -0.39700
N2105       N  0.11005576  0.49921993  0.14970946    -0.39500
N2106       N  0.10354580  0.44024694  0.15400155    -0.37100
N2107       N  0.14476983  0.44034245  0.31057288    -0.38200
N2108       N  0.15084037  0.49930502  0.30570596    -0.39800
C2109       C  0.01089647  0.38387176  0.23691089    -0.04800
C2110       C  0.00216525  0.38998379  0.26657937     0.09400
C2111       C  0.01418883  0.39571712  0.29311299    -0.02200
C2112       C  0.03490786  0.39529791  0.29005353    -0.00400
C2113       C  0.04371192  0.38922322  0.26030480    -0.04000
C2114       C  0.03159183  0.38340864  0.23377162     0.03000
C2115       C  0.98020150  0.39071332  0.26942753     0.09800
C2116       C  0.00518770  0.40228933  0.32342530     0.35700
C2117       C  0.04035428  0.37626878  0.20356330     0.39100
C2118       C  0.96948609  0.37341098  0.27677303    -0.04400
C2119       C  0.94866883  0.37369129  0.27648409     0.02800
C2120       C  0.93844637  0.39131375  0.26854377    -0.04000
C2121       C  0.94930174  0.40884983  0.26263379    -0.00200
C2122       C  0.97008727  0.40849214  0.26293675    -0.02800
C2123       C  0.97996252  0.35513767  0.28344059     0.36500
C2124       C  0.93913903  0.42737266  0.25638683     0.40100
C2125       C  0.93790170  0.35553655  0.28257322     0.39200
C2126       C  0.98115361  0.42629410  0.25554357     0.36100
C2127       C  0.99848618  0.37817575  0.20952571     0.36800
C2128       C  0.04712548  0.40173888  0.31721776     0.40100
N2129       N  0.92933799  0.34103454  0.28742376    -0.38000
N2130       N  0.98834507  0.34055246  0.28858543    -0.39600
N2131       N  0.93105716  0.44215103  0.25139832    -0.37300
N2132       N  0.99003029  0.44044888  0.24958305    -0.39700
N2133       N  0.99802758  0.40760941  0.34759049    -0.39500
N2134       N  0.05692741  0.40685943  0.33882450    -0.37100
N2135       N  0.04733038  0.37050617  0.17951712    -0.38200
N2136       N  0.98852452  0.37366788  0.18775020    -0.39800
C2137       C  0.18261842  0.37065989  0.34843904    -0.04800
C2138       C  0.17975787  0.38226753  0.37668671     0.09400
C2139       C  0.16160193  0.39194662  0.38172090    -0.02200
C2140       C  0.14670226  0.39096618  0.35764999    -0.00400
C2141       C  0.14985032  0.38006421  0.32841958    -0.04000
C2142       C  0.16776853  0.36956629  0.32433089     0.03000
C2143       C  0.19635079  0.38530385  0.40020889     0.09800
C2144       C  0.15851603  0.40337781  0.41137427     0.35700
C2145       C  0.17103678  0.35760733  0.29533281     0.39100
C2146       C  0.21089873  0.39966028  0.39349819    -0.04400
C2147       C  0.22646093  0.40277172  0.41576041     0.02800
C2148       C  0.22672513  0.39260035  0.44585090    -0.04000
C2149       C  0.21309911  0.37715051  0.45137165    -0.00200
C2150       C  0.19786406  0.37357520  0.42861351    -0.02800
C2151       C  0.20987711  0.41111472  0.36354284     0.36500
C2152       C  0.21497233  0.36468883  0.48010355     0.40100
C2153       C  0.24275268  0.41562318  0.40702909     0.39200
C2154       C  0.18394244  0.35763972  0.43398810     0.36100
C2155       C  0.20104767  0.36006789  0.34410799     0.36800
C2156       C  0.12872043  0.40229413  0.36224842     0.40100
N2157       N  0.25586347  0.42573095  0.40009252    -0.38000
N2158       N  0.20898957  0.42021754  0.33960575    -0.39600
N2159       N  0.21637529  0.35469647  0.50297564    -0.37300
N2160       N  0.17288604  0.34484741  0.43804559    -0.39700
N2161       N  0.15607144  0.41242470  0.43509352    -0.39500
N2162       N  0.11444410  0.41142567  0.36591853    -0.37100
N2163       N  0.17369783  0.34810769  0.27216951    -0.38200
N2164       N  0.21578287  0.35164960  0.34086006    -0.39800
C2165       C  0.10365245  0.32916429  0.12022338    -0.04800
C2166       C  0.10494941  0.30935810  0.13055462     0.09400
C2167       C  0.10948431  0.30497678  0.16338988    -0.02200
C2168       C  0.11204866  0.32037173  0.18625375    -0.00400
C2169       C  0.10963569  0.34037977  0.17653207    -0.04000
C2170       C  0.10568589  0.34465866  0.14309697     0.03000
C2171       C  0.10155096  0.29298667  0.10671301     0.09800
C2172       C  0.11152112  0.28451589  0.17356675     0.35700
C2173       C  0.10288978  0.36485837  0.13204280     0.39100
C2174       C  0.11768046  0.28366139  0.09165322    -0.04400
C2175       C  0.11461681  0.26774748  0.06996386     0.02800
C2176       C  0.09516793  0.26127985  0.06238063    -0.04000
C2177       C  0.07897039  0.27137767  0.07677276    -0.00200
C2178       C  0.08222633  0.28684943  0.09934779    -0.02800
C2179       C  0.13751223  0.29066417  0.09842451     0.36500
C2180       C  0.05881712  0.26622466  0.06870003     0.40100
C2181       C  0.13176416  0.25844489  0.05543793     0.39200
C2182       C  0.06567345  0.29646924  0.11535029     0.36100
C2183       C  0.10027183  0.33350763  0.08586649     0.36800
C2184       C  0.11755465  0.31543022  0.21960940     0.40100
N2185       N  0.14578721  0.25103152  0.04497015    -0.38000
N2186       N  0.15327539  0.29635248  0.10381881    -0.39600
N2187       N  0.04247750  0.26305446  0.06246759    -0.37300
N2188       N  0.05254045  0.30413812  0.12826192    -0.39700
N2189       N  0.11320088  0.26818630  0.18155721    -0.39500
N2190       N  0.12196392  0.31142204  0.24617195    -0.37100
N2191       N  0.10060715  0.38091179  0.12297438    -0.38200
N2192       N  0.09772004  0.33685914  0.05840383    -0.39800
loop_ 
_geom_bond_atom_site_label_1 
_geom_bond_atom_site_label_2 
_geom_bond_distance 
_geom_bond_site_symmetry_2 
_ccdc_geom_bond_type 
O1            C4   1.266       .  A
O1           Cd6   2.467       .  S
C2           O11   1.265       .  A
C2            O7   1.266       .  A
C2         C2113   1.485       .  S
O3            C9   1.266       .  A
O3           Cd6   2.472       .  S
C4           O12   1.265       .  A
C4         C2141   1.490       .  S
C5           O10   1.266       .  A
C5            O8   1.265       .  A
C5         C2169   1.493       .  S
Cd6          O13   2.420       .  S
Cd6          O12   2.452       .  S
Cd6          O11   2.452       .  S
Cd6           O7   2.461       .  S
Cd6          O10   2.463       .  S
Cd6           O8   2.442       .  S
C9           O13   1.264       .  A
C9         C2085   1.478       .  S
O14          C17   1.265       .  A
O14         Cd19   2.462       .  S
C15          O24   1.265       .  A
C15          O20   1.268       .  A
C15        C2008   1.485       .  S
O16          C22   1.267       .  A
O16         Cd19   2.468       .  S
C17          O25   1.266       .  A
C17        C2057   1.490       .  S
C18          O23   1.268       .  A
C18          O21   1.263       .  A
C18        C2120   1.489       .  S
Cd19         O26   2.458       .  S
Cd19         O25   2.476       .  S
Cd19         O24   2.422       .  S
Cd19         O20   2.480       .  S
Cd19         O23   2.492       .  S
Cd19         O21   2.437       .  S
C22          O26   1.265       .  A
C22        C2029   1.494       .  S
O27          C30   1.266       .  A
O27         Cd32   2.482       .  S
C28          O37   1.264       .  A
C28          O33   1.269       .  A
C28        C2092   1.485       .  S
O29          C35   1.268       .  A
O29         Cd32   2.477       .  S
C30          O38   1.264       .  A
C30        C1973   1.480       .  S
C31          O36   1.269       .  A
C31          O34   1.265       .  A
C31        C1917   1.488       .  S
Cd32         O39   2.448       .  S
Cd32         O38   2.442       .  S
Cd32         O37   2.416       .  S
Cd32         O33   2.460       .  S
Cd32         O36   2.474       .  S
Cd32         O34   2.445       .  S
C35          O39   1.265       .  A
C35        C1952   1.496       .  S
O40          C43   1.265       .  A
O40         Cd45   2.472       .  S
C41          O50   1.265       .  A
C41          O46   1.270       .  A
C41        C1924   1.493       .  S
O42          C48   1.269       .  A
O42         Cd45   2.494       .  S
C43          O51   1.265       .  A
C43        C1861   1.489       .  S
C44          O49   1.268       .  A
C44          O47   1.265       .  A
C44        C1889   1.490       .  S
Cd45         O52   2.416       .  S
Cd45         O51   2.470       .  S
Cd45         O50   2.425       .  S
Cd45         O46   2.489       .  S
Cd45         O49   2.488       .  S
Cd45         O47   2.451       .  S
C48          O52   1.263       .  A
C48        C2001   1.485       .  S
O53          C56   1.267       .  A
O53         Cd58   2.496       .  S
C54          O63   1.266       .  A
C54          O59   1.267       .  A
C54        C1805   1.500       .  S
O55          C61   1.268       .  A
O55         Cd58   2.491       .  S
C56          O64   1.264       .  A
C56        C1784   1.492       .  S
C57          O62   1.266       .  A
C57          O60   1.266       .  A
C57        C1840   1.500       .  S
Cd58         O65   2.448       .  S
Cd58         O64   2.457       .  S
Cd58         O63   2.463       .  S
Cd58         O59   2.491       .  S
Cd58         O62   2.491       .  S
Cd58         O60   2.494       .  S
C61          O65   1.264       .  A
C61        C1749   1.488       .  S
O66          C69   1.266       .  A
O66         Cd71   2.488       .  S
C67          O76   1.264       .  A
C67          O72   1.267       .  A
C67        C1672   1.494       .  S
O68          C74   1.268       .  A
O68         Cd71   2.495       .  S
C69          O77   1.265       .  A
C69        C1728   1.497       .  S
C70          O75   1.266       .  A
C70          O73   1.266       .  A
C70        C1693   1.505       .  S
Cd71         O78   2.440       .  S
Cd71         O77   2.475       .  S
Cd71         O76   2.443       .  S
Cd71         O72   2.490       .  S
Cd71         O75   2.492       .  S
Cd71         O73   2.489       .  S
C74          O78   1.264       .  A
C74        C1777   1.490       .  S
O79          C82   1.269       .  A
O79         Cd84   2.507       .  S
C80          O89   1.263       .  A
C80          O85   1.271       .  A
C80        C1756   1.496       .  S
O81          C87   1.269       .  A
O81         Cd84   2.490       .  S
C82          O90   1.265       .  A
C82        C1637   1.505       .  S
C83          O88   1.268       .  A
C83          O86   1.266       .  A
C83        C1609   1.497       .  S
Cd84         O91   2.446       .  S
Cd84         O90   2.456       .  S
Cd84         O89   2.422       .  S
Cd84         O85   2.495       .  S
Cd84         O88   2.469       .  S
Cd84         O86   2.477       .  S
C87          O91   1.264       .  A
C87        C1581   1.490       .  S
O92          C95   1.267       .  A
O92         Cd97   2.485       .  S
C93         O102   1.265       .  A
C93          O98   1.264       .  A
C93        C1525   1.496       .  S
O94         C100   1.268       .  A
O94         Cd97   2.503       .  S
C95         O103   1.265       .  A
C95        C1588   1.492       .  S
C96         O101   1.268       .  A
C96          O99   1.265       .  A
C96        C1553   1.490       .  S
Cd97        O104   2.428       .  S
Cd97        O103   2.439       .  S
Cd97        O102   2.470       .  S
Cd97         O98   2.466       .  S
Cd97        O101   2.490       .  S
Cd97         O99   2.447       .  S
C100        O104   1.263       .  A
C100       C1665   1.486       .  S
C105        C106   1.552       .  S
C105        C111   1.540       .  S
C105        C109   1.533       .  S
C105       C1469   1.556       .  S
C106        H113   1.085       .  S
C106        C107   1.378       .  D
C107        C108   1.550       .  S
C107       C1441   1.522       .  S
C108        C112   1.546       .  S
C108        C110   1.545       .  S
C108        H114   1.108       .  S
C109        H115   1.086       .  S
C109        C110   1.364       .  D
C110       C1504   1.496       .  S
C111        H116   1.083       .  S
C111        C112   1.362       .  D
C112       C1812   1.500       .  S
C117        C118   1.542       .  S
C117        C123   1.548       .  S
C117        C121   1.542       .  S
C117       C1413   1.566       .  S
C118        H125   1.086       .  S
C118        C119   1.361       .  D
C119        C120   1.541       .  S
C119       C1616   1.498       .  S
C120        C124   1.545       .  S
C120        C122   1.550       .  S
C120        H126   1.108       .  S
C121        H127   1.085       .  S
C121        C122   1.376       .  D
C122       C1497   1.524       .  S
C123        H128   1.081       .  S
C123        C124   1.369       .  D
C124       C1385   1.504       .  S
C129        C130   1.549       .  S
C129        C135   1.549       .  S
C129        C133   1.523       .  S
C129       C1329   1.556       .  S
C130        H137   1.082       .  S
C130        C131   1.374       .  D
C131        C132   1.546       .  S
C131       C1301   1.524       .  S
C132        C136   1.539       .  S
C132        C134   1.553       .  S
C132        H138   1.100       .  S
C133        H139   1.086       .  S
C133        C134   1.360       .  D
C134       C1357   1.490       .  S
C135        H140   1.082       .  S
C135        C136   1.370       .  D
C136       C1945   1.510       .  S
C141        C142   1.521       .  S
C141        C147   1.552       .  S
C141        C145   1.550       .  S
C141       C1476   1.560       .  S
C142        H149   1.087       .  S
C142        C143   1.354       .  D
C143        C144   1.549       .  S
C143       C2148   1.483       .  S
C144        C148   1.542       .  S
C144        C146   1.541       .  S
C144        H150   1.099       .  S
C145        H151   1.081       .  S
C145        C146   1.374       .  D
C146       C1364   1.519       .  S
C147        H152   1.083       .  S
C147        C148   1.377       .  D
C148       C1273   1.520       .  S
C153        C154   1.543       .  S
C153        C159   1.544       .  S
C153        C157   1.542       .  S
C153       C1217   1.568       .  S
C154        H161   1.084       .  S
C154        C155   1.370       .  D
C155        C156   1.542       .  S
C155       C1189   1.512       .  S
C156        C160   1.544       .  S
C156        C158   1.545       .  S
C156        H162   1.109       .  S
C157        H163   1.085       .  S
C157        C158   1.366       .  D
C158       C1245   1.493       .  S
C159        H164   1.053       .  S
C159        C160   1.366       .  D
C160       C1532   1.500       .  S
C165        C166   1.543       .  S
C165        C171   1.545       .  S
C165        C169   1.552       .  S
C165       C1336   1.575       .  S
C166        H173   1.086       .  S
C166        C167   1.366       .  D
C167        C168   1.538       .  S
C167       C1700   1.508       .  S
C168        C172   1.541       .  S
C168        C170   1.546       .  S
C168        H174   1.107       .  S
C169        H175   1.078       .  S
C169        C170   1.376       .  D
C170       C1252   1.515       .  S
C171        H176   1.086       .  S
C171        C172   1.364       .  D
C172       C1161   1.495       .  S
C177        C178   1.535       .  S
C177        C183   1.544       .  S
C177        C181   1.555       .  S
C177       C1420   1.569       .  S
C178        H185   1.086       .  S
C178        C179   1.370       .  D
C179        C180   1.544       .  S
C179       C1112   1.513       .  S
C180        C184   1.539       .  S
C180        C182   1.540       .  S
C180        H186   1.107       .  S
C181        H187   1.082       .  S
C181        C182   1.373       .  D
C182       C1133   1.510       .  S
C183        H188   1.084       .  S
C183        C184   1.365       .  D
C184       C2036   1.490       .  S
C189        C190   1.530       .  S
C189        C195   1.547       .  S
C189        C193   1.544       .  S
C189       C1224   1.557       .  S
C190        H197   1.087       .  S
C190        C191   1.358       .  D
C191        C192   1.542       .  S
C191       C1868   1.499       .  S
C192        C196   1.554       .  S
C192        C194   1.548       .  S
C192        H198   1.109       .  S
C193        H199   1.080       .  S
C193        C194   1.369       .  D
C194       C1140   1.503       .  S
C195        H200   1.084       .  S
C195        C196   1.374       .  D
C196       C1077   1.519       .  S
O201        C204   1.265       .  A
O201       Cd206   2.461       .  S
C202        O211   1.263       .  A
C202        O207   1.267       .  A
C202        C993   1.492       .  S
O203        C209   1.267       .  A
O203       Cd206   2.506       .  S
C204        O212   1.267       .  A
C204       C1049   1.490       .  S
C205        O210   1.268       .  A
C205        O208   1.266       .  A
C205       C1448   1.493       .  S
Cd206       O213   2.432       .  S
Cd206       O212   2.493       .  S
Cd206       O211   2.452       .  S
Cd206       O207   2.496       .  S
Cd206       O210   2.478       .  S
Cd206       O208   2.459       .  S
C209        O213   1.262       .  A
C209       C1028   1.484       .  S
O214        C217   1.266       .  A
O214       Cd219   2.469       .  S
C215        O224   1.262       .  A
C215        O220   1.266       .  A
C215       C1021   1.499       .  S
O216        C222   1.265       .  A
O216       Cd219   2.467       .  S
C217        O225   1.268       .  A
C217       C1168   1.495       .  S
C218        O223   1.266       .  A
C218        O221   1.264       .  A
C218        C937   1.482       .  S
Cd219       O226   2.489       .  S
Cd219       O225   2.479       .  S
Cd219       O224   2.431       .  S
Cd219       O220   2.485       .  S
Cd219       O223   2.480       .  S
Cd219       O221   2.457       .  S
C222        O226   1.267       .  A
C222        C965   1.490       .  S
O227        C230   1.270       .  A
O227       Cd232   2.475       .  S
C228        O237   1.263       .  A
C228        O233   1.267       .  A
C228       C1392   1.486       .  S
O229        C235   1.272       .  A
O229       Cd232   2.497       .  S
C230        O238   1.265       .  A
C230        C888   1.489       .  S
C231        O236   1.269       .  A
C231        O234   1.263       .  A
C231        C916   1.491       .  S
Cd232       O239   2.438       .  S
Cd232       O238   2.416       .  S
Cd232       O237   2.454       .  S
Cd232       O233   2.501       .  S
Cd232       O236   2.514       .  S
Cd232       O234   2.459       .  S
C235        O239   1.265       .  A
C235       C1000   1.495       .  S
O240        C243   1.268       .  A
O240       Cd245   2.485       .  S
C241        O250   1.264       .  A
C241        O246   1.269       .  A
C241        C944   1.493       .  S
O242        C248   1.268       .  A
O242       Cd245   2.492       .  S
C243        O251   1.264       .  A
C243        C860   1.497       .  S
C244        O249   1.266       .  A
C244        O247   1.266       .  A
C244       C1196   1.486       .  S
Cd245       O252   2.418       .  S
Cd245       O251   2.448       .  S
Cd245       O250   2.417       .  S
Cd245       O246   2.502       .  S
Cd245       O249   2.467       .  S
Cd245       O247   2.473       .  S
C248        O252   1.264       .  A
C248        C881   1.483       .  S
O253        C256   1.268       .  A
O253       Cd258   2.488       .  S
C254        O263   1.265       .  A
C254        O259   1.264       .  A
C254        C825   1.505       .  S
O255        C261   1.267       .  A
O255       Cd258   2.495       .  S
C256        O264   1.264       .  A
C256        C769   1.487       .  S
C257        O262   1.268       .  A
C257        O260   1.265       .  A
C257       C1280   1.487       .  S
Cd258       O265   2.433       .  S
Cd258       O264   2.423       .  S
Cd258       O263   2.487       .  S
Cd258       O259   2.477       .  S
Cd258       O262   2.478       .  S
Cd258       O260   2.457       .  S
C261        O265   1.263       .  A
C261        C797   1.486       .  S
O266        C269   1.269       .  A
O266       Cd271   2.512       .  S
C267        O276   1.264       .  A
C267        O272   1.270       .  A
C267        C804   1.497       .  S
O268        C274   1.268       .  A
O268       Cd271   2.476       .  S
C269        O277   1.264       .  A
C269       C1105   1.493       .  S
C270        O275   1.266       .  A
C270        O273   1.266       .  A
C270        C741   1.485       .  S
Cd271       O278   2.445       .  S
Cd271       O277   2.452       .  S
Cd271       O276   2.436       .  S
Cd271       O272   2.513       .  S
Cd271       O275   2.480       .  S
Cd271       O273   2.460       .  S
C274        O278   1.265       .  A
C274        C713   1.493       .  S
O279        C282   1.265       .  A
O279       Cd284   2.473       .  S
C280        O289   1.265       .  A
C280        O285   1.268       .  A
C280        C657   1.497       .  S
O281        C287   1.266       .  A
O281       Cd284   2.473       .  S
C282        O290   1.265       .  A
C282       C1308   1.498       .  S
C283        O288   1.265       .  A
C283        O286   1.265       .  A
C283        C692   1.502       .  S
Cd284       O291   2.427       .  S
Cd284       O290   2.491       .  S
Cd284       O289   2.450       .  S
Cd284       O285   2.482       .  S
Cd284       O288   2.466       .  S
Cd284       O286   2.457       .  S
C287        O291   1.264       .  A
C287        C776   1.485       .  S
O292        C295   1.267       .  A
O292       Cd297   2.470       .  S
C293        O302   1.267       .  A
C293        O298   1.265       .  A
C293        C636   1.491       .  S
O294        C300   1.268       .  A
O294       Cd297   2.499       .  S
C295        O303   1.264       .  A
C295        C720   1.479       .  S
C296        O301   1.269       .  A
C296        O299   1.264       .  A
C296       C1084   1.499       .  S
Cd297       O304   2.447       .  S
Cd297       O303   2.431       .  S
Cd297       O302   2.483       .  S
Cd297       O298   2.462       .  S
Cd297       O301   2.497       .  S
Cd297       O299   2.443       .  S
C300        O304   1.264       .  A
C300        C664   1.490       .  S
C305        C306   1.541   1_556  S
C305        C311   1.549       .  S
C305        C309   1.539       .  S
C305        C573   1.561       .  S
C306        H313   1.085       .  S
C306        C307   1.359       .  D
C307        C308   1.539   1_554  S
C307       C1721   1.494       .  S
C308        C312   1.544       .  S
C308        C310   1.550       .  S
C308        H314   1.109       .  S
C309        H315   1.085       .  S
C309        C310   1.374       .  D
C310        C601   1.516       .  S
C311        H316   1.084       .  S
C311        C312   1.371       .  D
C312        C972   1.502       .  S
C317        C318   1.544   1_554  S
C317        C323   1.533       .  S
C317        C321   1.556       .  S
C317        C552   1.571       .  S
C318        H325   1.085       .  S
C318        C319   1.374       .  D
C319        C320   1.547   1_556  S
C319       C1056   1.525       .  S
C320        C324   1.555       .  S
C320        C322   1.541       .  S
C320        H326   1.101       .  S
C321        H327   1.076       .  S
C321        C322   1.373       .  D
C322        C608   1.518       .  S
C323        H328   1.087       .  S
C323        C324   1.357       .  D
C324       C1833   1.493       .  S
C329        C330   1.555       .  S
C329        C335   1.534   1_556  S
C329        C333   1.535   1_556  S
C329        C489   1.559       .  S
C330        H337   1.082       .  S
C330        C331   1.374       .  D
C331        C332   1.542   1_556  S
C331        C748   1.519       .  S
C332        C336   1.555       .  S
C332        C334   1.551       .  S
C332        H338   1.100       .  S
C333        H339   1.085       .  S
C333        C334   1.373       .  D
C334        C524   1.524       .  S
C335        H340   1.086       .  S
C335        C336   1.358       .  D
C336       C2064   1.492       .  S
C341        C342   1.548       .  S
C341        C347   1.550   1_554  S
C341        C345   1.524       .  S
C341        C545   1.556       .  S
C342        H349   1.082       .  S
C342        C343   1.367       .  D
C343        C344   1.536       .  S
C343       C2176   1.504       .  S
C344        C348   1.547   1_554  S
C344        C346   1.556       .  S
C344        H350   1.102       .  S
C345        H351   1.086       .  S
C345        C346   1.361       .  D
C346        C517   1.494       .  S
C347        H352   1.082       .  S
C347        C348   1.373       .  D
C348        C832   1.525       .  S
C353        C354   1.545       .  S
C353        C359   1.535   1_554  S
C353        C357   1.557       .  S
C353        C440   1.569       .  S
C354        H361   1.085       .  S
C354        C355   1.377       .  D
C355        C356   1.540   1_554  S
C355       C1896   1.523       .  S
C356        C360   1.548       .  S
C356        C358   1.536       .  S
C356        H362   1.098       .  S
C357        H363   1.077   1_554  S
C357        C358   1.373   1_554  D
C358        C461   1.513       .  S
C359        H364   1.086       .  S
C359        C360   1.356       .  D
C360        C629   1.486       .  S
C365        C366   1.535       .  S
C365        C371   1.545   1_556  S
C365        C369   1.549       .  S
C365        C580   1.564       .  S
C366        H373   1.085       .  S
C366        C367   1.365       .  D
C367        C368   1.545       .  S
C367        C685   1.507       .  S
C368        C372   1.538   1_556  S
C368        C370   1.545       .  S
C368        H374   1.109       .  S
C369        H375   1.080   1_556  S
C369        C370   1.372       .  D
C370        C468   1.502       .  S
C371        H376   1.085       .  S
C371        C372   1.363       .  D
C372       C1980   1.500       .  S
C377        C378   1.541   1_554  S
C377        C383   1.548       .  S
C377        C381   1.545       .  S
C377        C433   1.567       .  S
C378        H385   1.086       .  S
C378        C379   1.361       .  D
C379        C380   1.539       .  S
C379        C853   1.491       .  S
C380        C384   1.542   1_556  S
C380        C382   1.545   1_556  S
C380        H386   1.108       .  S
C381        H387   1.085       .  S
C381        C382   1.377       .  D
C382        C405   1.519       .  S
C383        H388   1.082       .  S
C383        C384   1.369       .  D
C384       C1560   1.505       .  S
C389        C390   1.541       .  S
C389        C395   1.543   1_554  S
C389        C393   1.551   1_554  S
C389        C496   1.575       .  S
C390        H397   1.086       .  S
C390        C391   1.368       .  D
C391        C392   1.544       .  S
C391       C1644   1.506       .  S
C392        C396   1.547   1_554  S
C392        C394   1.544       .  S
C392        H398   1.109       .  S
C393        H399   1.078       .  S
C393        C394   1.368   1_556  D
C394        C412   1.509       .  S
C395        H400   1.085       .  S
C395        C396   1.371       .  D
C396        C909   1.506       .  S
C401        C402   1.406       .  A
C401        C406   1.415       .  A
C401        C419   1.453       .  S
C402        C407   1.508   1_565  S
C402        C403   1.409   1_554  A
C403        C404   1.419       .  A
C403        C408   1.450       .  S
C404        C405   1.424   1_556  A
C404        C420   1.449       .  S
C405        C406   1.425       .  A
C406        C409   1.447       .  S
C407        C410   1.410       .  A
C407        C414   1.411   1_554  A
C408        N425   1.157   1_565  T
C409        N427   1.157       .  T
C410        C411   1.415       .  A
C410        C415   1.450       .  S
C411        C412   1.420       .  A
C411        C417   1.451       .  S
C412        C413   1.417   1_554  A
C413        C414   1.417       .  A
C413        C416   1.447       .  S
C414        C418   1.451       .  S
C415        N422   1.157       .  T
C416        N423   1.157       .  T
C417        N421   1.157       .  T
C418        N424   1.157       .  T
C419        N428   1.157   1_565  T
C420        N426   1.157       .  T
C429        C430   1.406   1_556  A
C429        C434   1.418       .  A
C429        C447   1.451       .  S
C430        C435   1.506       .  S
C430        C431   1.406       .  A
C431        C432   1.415       .  A
C431        C436   1.453       .  S
C432        C433   1.429       .  A
C432        C448   1.446       .  S
C433        C434   1.430   1_554  A
C434        C437   1.450       .  S
C435        C438   1.406       .  A
C435        C442   1.404       .  A
C436        N453   1.157       .  T
C437        N455   1.157       .  T
C438        C439   1.419       .  A
C438        C443   1.452       .  S
C439        C440   1.430       .  A
C439        C445   1.446       .  S
C440        C441   1.433       .  A
C441        C442   1.414       .  A
C441        C444   1.451       .  S
C442        C446   1.453   1_554  S
C443        N450   1.157       .  T
C444        N451   1.157       .  T
C445        N449   1.158       .  T
C446        N452   1.157       .  T
C447        N456   1.157       .  T
C448        N454   1.156       .  T
C457        C458   1.409   1_554  A
C457        C462   1.415       .  A
C457        C475   1.451       .  S
C458        C463   1.504   1_655  S
C458        C459   1.408       .  A
C459        C460   1.414       .  A
C459        C464   1.453       .  S
C460        C461   1.422       .  A
C460        C476   1.446       .  S
C461        C462   1.422   1_556  A
C462        C465   1.450       .  S
C463        C466   1.412   1_556  A
C463        C470   1.410       .  A
C464        N481   1.157       .  T
C465        N483   1.157       .  T
C466        C467   1.415       .  A
C466        C471   1.451       .  S
C467        C468   1.416   1_554  A
C467        C473   1.448       .  S
C468        C469   1.418       .  A
C469        C470   1.412       .  A
C469        C472   1.450       .  S
C470        C474   1.451       .  S
C471        N478   1.157   1_455  T
C472        N479   1.157       .  T
C473        N477   1.157       .  T
C474        N480   1.157       .  T
C475        N484   1.157       .  T
C476        N482   1.156       .  T
C485        C486   1.410       .  A
C485        C490   1.416       .  A
C485        C503   1.450       .  S
C486        C491   1.506       .  S
C486        C487   1.407   1_554  A
C487        C488   1.413       .  A
C487        C492   1.452       .  S
C488        C489   1.423       .  A
C488        C504   1.445       .  S
C489        C490   1.427   1_556  A
C490        C493   1.452       .  S
C491        C494   1.403   1_554  A
C491        C498   1.405       .  A
C492        N509   1.157       .  T
C493        N511   1.157       .  T
C494        C495   1.415       .  A
C494        C499   1.454       .  S
C495        C496   1.435   1_556  A
C495        C501   1.447       .  S
C496        C497   1.437       .  A
C497        C498   1.419       .  A
C497        C500   1.446       .  S
C498        C502   1.453       .  S
C499        N506   1.157       .  T
C500        N507   1.158       .  T
C501        N505   1.156       .  T
C502        N508   1.157       .  T
C503        N512   1.157       .  T
C504        N510   1.156       .  T
C513        C514   1.415   1_556  A
C513        C518   1.413       .  A
C513        C531   1.450       .  S
C514        C519   1.509   1_455  S
C514        C515   1.415       .  A
C515        C516   1.414       .  A
C515        C520   1.450       .  S
C516        C517   1.413       .  A
C516        C532   1.451       .  S
C517        C518   1.410   1_554  A
C518        C521   1.450       .  S
C519        C522   1.409   1_554  A
C519        C526   1.410       .  A
C520        N537   1.157   1_455  T
C521        N539   1.157       .  T
C522        C523   1.414       .  A
C522        C527   1.452       .  S
C523        C524   1.428   1_556  A
C523        C529   1.452       .  S
C524        C525   1.426       .  A
C525        C526   1.417       .  A
C525        C528   1.448       .  S
C526        C530   1.453       .  S
C527        N534   1.157       .  T
C528        N535   1.158       .  T
C529        N533   1.158       .  T
C530        N536   1.157       .  T
C531        N540   1.157   1_455  T
C532        N538   1.157       .  T
C541        C542   1.411   1_556  A
C541        C546   1.413       .  A
C541        C559   1.450       .  S
C542        C547   1.506       .  S
C542        C543   1.409       .  A
C543        C544   1.415       .  A
C543        C548   1.451       .  S
C544        C545   1.425       .  A
C544        C560   1.450       .  S
C545        C546   1.422   1_554  A
C546        C549   1.451       .  S
C547        C550   1.405       .  A
C547        C554   1.406       .  A
C548        N565   1.157       .  T
C549        N567   1.157       .  T
C550        C551   1.414       .  A
C550        C555   1.453       .  S
C551        C552   1.434       .  A
C551        C557   1.452       .  S
C552        C553   1.433   1_554  A
C553        C554   1.419   1_556  A
C553        C556   1.445       .  S
C554        C558   1.453   1_554  S
C555        N562   1.157       .  T
C556        N563   1.157       .  T
C557        N561   1.157       .  T
C558        N564   1.157       .  T
C559        N568   1.157       .  T
C560        N566   1.158       .  T
C569        C570   1.405   1_554  A
C569        C574   1.412       .  A
C569        C587   1.452       .  S
C570        C575   1.503       .  S
C570        C571   1.409       .  A
C571        C572   1.416       .  A
C571        C576   1.451       .  S
C572        C573   1.424       .  A
C572        C588   1.447       .  S
C573        C574   1.429   1_556  A
C574        C577   1.450       .  S
C575        C578   1.406       .  A
C575        C582   1.403       .  A
C576        N593   1.157       .  T
C577        N595   1.157       .  T
C578        C579   1.418       .  A
C578        C583   1.452       .  S
C579        C580   1.432       .  A
C579        C585   1.447       .  S
C580        C581   1.436       .  A
C581        C582   1.412       .  A
C581        C584   1.453   1_556  S
C582        C586   1.453   1_556  S
C583        N590   1.157       .  T
C584        N591   1.158       .  T
C585        N589   1.158       .  T
C586        N592   1.157       .  T
C587        N596   1.157       .  T
C588        N594   1.157       .  T
C597        C598   1.408   1_554  A
C597        C602   1.416       .  A
C597        C615   1.451       .  S
C598        C603   1.506   1_566  S
C598        C599   1.408       .  A
C599        C600   1.416       .  A
C599        C604   1.452       .  S
C600        C601   1.423       .  A
C600        C616   1.447       .  S
C601        C602   1.425   1_556  A
C602        C605   1.450       .  S
C603        C606   1.408       .  A
C603        C610   1.408   1_554  A
C604        N621   1.157   1_565  T
C605        N623   1.157       .  T
C606        C607   1.417       .  A
C606        C611   1.452       .  S
C607        C608   1.423       .  A
C607        C613   1.446       .  S
C608        C609   1.423   1_554  A
C609        C610   1.415       .  A
C609        C612   1.450       .  S
C610        C614   1.451       .  S
C611        N618   1.157       .  T
C612        N619   1.157       .  T
C613        N617   1.157       .  T
C614        N620   1.157       .  T
C615        N624   1.157       .  T
C616        N622   1.157       .  T
C625        C626   1.411       .  A
C625        C630   1.410       .  A
C625        C643   1.450       .  S
C626        C631   1.498       .  S
C626        C627   1.413       .  A
C627        C628   1.410       .  A
C627        C632   1.450       .  S
C628        C629   1.410       .  A
C628        C644   1.451       .  S
C629        C630   1.412       .  A
C630        C633   1.451       .  S
C631        C634   1.411       .  A
C631        C638   1.410       .  A
C632        N649   1.157       .  T
C633        N651   1.157   1_556  T
C634        C635   1.413       .  A
C634        C639   1.451       .  S
C635        C636   1.415       .  A
C635        C641   1.450       .  S
C636        C637   1.418       .  A
C637        C638   1.411       .  A
C637        C640   1.451       .  S
C638        C642   1.452       .  S
C639        N646   1.157       .  T
C640        N647   1.157       .  T
C641        N645   1.157       .  T
C642        N648   1.157       .  T
C643        N652   1.157       .  T
C644        N650   1.157       .  T
C653        C654   1.410       .  A
C653        C658   1.413       .  A
C653        C671   1.450       .  S
C654        C659   1.500   1_455  S
C654        C655   1.410       .  A
C655        C656   1.412       .  A
C655        C660   1.451       .  S
C656        C657   1.419       .  A
C656        C672   1.452       .  S
C657        C658   1.419       .  A
C658        C661   1.451       .  S
C659        C662   1.411       .  A
C659        C666   1.411       .  A
C660        N677   1.157   1_455  T
C661        N679   1.157       .  T
C662        C663   1.414       .  A
C662        C667   1.450       .  S
C663        C664   1.415       .  A
C663        C669   1.450       .  S
C664        C665   1.416       .  A
C665        C666   1.411       .  A
C665        C668   1.452       .  S
C666        C670   1.451       .  S
C667        N674   1.157       .  T
C668        N675   1.157       .  T
C669        N673   1.157       .  T
C670        N676   1.157   1_655  T
C671        N680   1.157       .  T
C672        N678   1.158       .  T
C681        C682   1.403       .  A
C681        C686   1.409       .  A
C681        C699   1.454       .  S
C682        C687   1.491       .  S
C682        C683   1.405       .  A
C683        C684   1.411       .  A
C683        C688   1.452       .  S
C684        C685   1.422       .  A
C684        C700   1.449       .  S
C685        C686   1.427       .  A
C686        C689   1.449       .  S
C687        C690   1.406       .  A
C687        C694   1.405       .  A
C688        N705   1.157       .  T
C689        N707   1.157       .  T
C690        C691   1.411       .  A
C690        C695   1.452       .  S
C691        C692   1.425       .  A
C691        C697   1.451       .  S
C692        C693   1.423       .  A
C693        C694   1.409       .  A
C693        C696   1.451       .  S
C694        C698   1.452       .  S
C695        N702   1.157       .  T
C696        N703   1.157       .  T
C697        N701   1.158       .  T
C698        N704   1.157       .  T
C699        N708   1.157       .  T
C700        N706   1.157       .  T
C709        C710   1.408       .  A
C709        C714   1.413       .  A
C709        C727   1.450       .  S
C710        C715   1.494       .  S
C710        C711   1.409       .  A
C711        C712   1.408       .  A
C711        C716   1.453       .  S
C712        C713   1.418       .  A
C712        C728   1.452       .  S
C713        C714   1.420       .  A
C714        C717   1.450       .  S
C715        C718   1.411       .  A
C715        C722   1.411       .  A
C716        N733   1.157       .  T
C717        N735   1.157       .  T
C718        C719   1.410       .  A
C718        C723   1.449       .  S
C719        C720   1.412       .  A
C719        C725   1.451       .  S
C720        C721   1.414       .  A
C721        C722   1.408       .  A
C721        C724   1.452       .  S
C722        C726   1.451       .  S
C723        N730   1.157       .  T
C724        N731   1.158       .  T
C725        N729   1.157       .  T
C726        N732   1.157       .  T
C727        N736   1.157       .  T
C728        N734   1.157       .  T
C737        C738   1.414       .  A
C737        C742   1.415       .  A
C737        C755   1.450       .  S
C738        C743   1.504       .  S
C738        C739   1.413       .  A
C739        C740   1.410       .  A
C739        C744   1.451       .  S
C740        C741   1.413       .  A
C740        C756   1.452       .  S
C741        C742   1.412       .  A
C742        C745   1.450       .  S
C743        C746   1.409       .  A
C743        C750   1.408       .  A
C744        N761   1.157       .  T
C745        N763   1.157       .  T
C746        C747   1.415       .  A
C746        C751   1.451       .  S
C747        C748   1.421       .  A
C747        C753   1.448       .  S
C748        C749   1.424       .  A
C749        C750   1.415       .  A
C749        C752   1.446       .  S
C750        C754   1.453       .  S
C751        N758   1.157       .  T
C752        N759   1.157   1_556  T
C753        N757   1.157       .  T
C754        N760   1.157       .  T
C755        N764   1.157       .  T
C756        N762   1.157       .  T
C765        C766   1.409       .  A
C765        C770   1.411       .  A
C765        C783   1.451       .  S
C766        C771   1.492       .  S
C766        C767   1.409       .  A
C767        C768   1.408       .  A
C767        C772   1.452       .  S
C768        C769   1.417       .  A
C768        C784   1.452       .  S
C769        C770   1.416       .  A
C770        C773   1.450       .  S
C771        C774   1.410       .  A
C771        C778   1.409       .  A
C772        N789   1.157       .  T
C773        N791   1.157       .  T
C774        C775   1.407       .  A
C774        C779   1.452       .  S
C775        C776   1.416       .  A
C775        C781   1.452       .  S
C776        C777   1.417       .  A
C777        C778   1.412       .  A
C777        C780   1.451       .  S
C778        C782   1.450       .  S
C779        N786   1.157       .  T
C780        N787   1.157       .  T
C781        N785   1.157       .  T
C782        N788   1.157       .  T
C783        N792   1.157       .  T
C784        N790   1.157       .  T
C793        C794   1.410       .  A
C793        C798   1.409       .  A
C793        C811   1.451       .  S
C794        C799   1.497   1_455  S
C794        C795   1.411       .  A
C795        C796   1.413       .  A
C795        C800   1.450       .  S
C796        C797   1.415       .  A
C796        C812   1.450       .  S
C797        C798   1.415       .  A
C798        C801   1.452       .  S
C799        C802   1.409       .  A
C799        C806   1.409       .  A
C800        N817   1.157       .  T
C801        N819   1.158       .  T
C802        C803   1.410       .  A
C802        C807   1.452       .  S
C803        C804   1.420       .  A
C803        C809   1.452       .  S
C804        C805   1.419       .  A
C805        C806   1.415       .  A
C805        C808   1.450       .  S
C806        C810   1.450       .  S
C807        N814   1.157   1_655  T
C808        N815   1.157       .  T
C809        N813   1.157       .  T
C810        N816   1.157       .  T
C811        N820   1.157       .  T
C812        N818   1.157       .  T
C821        C822   1.408       .  A
C821        C826   1.413       .  A
C821        C839   1.452       .  S
C822        C827   1.500       .  S
C822        C823   1.408       .  A
C823        C824   1.413       .  A
C823        C828   1.452       .  S
C824        C825   1.422       .  A
C824        C840   1.451       .  S
C825        C826   1.423       .  A
C826        C829   1.451       .  S
C827        C830   1.403       .  A
C827        C834   1.405       .  A
C828        N845   1.157       .  T
C829        N847   1.157       .  T
C830        C831   1.414       .  A
C830        C835   1.453       .  S
C831        C832   1.433       .  A
C831        C837   1.450       .  S
C832        C833   1.427       .  A
C833        C834   1.414       .  A
C833        C836   1.447       .  S
C834        C838   1.453       .  S
C835        N842   1.157       .  T
C836        N843   1.157       .  T
C837        N841   1.157       .  T
C838        N844   1.157       .  T
C839        N848   1.157       .  T
C840        N846   1.157       .  T
C849        C850   1.410       .  A
C849        C854   1.410       .  A
C849        C867   1.451       .  S
C850        C855   1.499       .  S
C850        C851   1.412       .  A
C851        C852   1.413       .  A
C851        C856   1.450       .  S
C852        C853   1.412       .  A
C852        C868   1.450       .  S
C853        C854   1.417       .  A
C854        C857   1.452       .  S
C855        C858   1.410       .  A
C855        C862   1.409       .  A
C856        N873   1.157       .  T
C857        N875   1.157       .  T
C858        C859   1.412       .  A
C858        C863   1.451       .  S
C859        C860   1.420       .  A
C859        C865   1.451       .  S
C860        C861   1.419       .  A
C861        C862   1.412       .  A
C861        C864   1.451       .  S
C862        C866   1.451       .  S
C863        N870   1.157       .  T
C864        N871   1.157       .  T
C865        N869   1.158       .  T
C866        N872   1.157       .  T
C867        N876   1.157       .  T
C868        N874   1.157       .  T
C877        C878   1.409       .  A
C877        C882   1.411       .  A
C877        C895   1.450       .  S
C878        C883   1.491   1_565  S
C878        C879   1.409       .  A
C879        C880   1.407       .  A
C879        C884   1.452       .  S
C880        C881   1.416       .  A
C880        C896   1.453       .  S
C881        C882   1.414       .  A
C882        C885   1.450       .  S
C883        C886   1.409       .  A
C883        C890   1.408       .  A
C884        N901   1.157       .  T
C885        N903   1.157       .  T
C886        C887   1.407       .  A
C886        C891   1.453       .  S
C887        C888   1.418       .  A
C887        C893   1.452       .  S
C888        C889   1.418       .  A
C889        C890   1.412       .  A
C889        C892   1.450       .  S
C890        C894   1.450       .  S
C891        N898   1.157   1_545  T
C892        N899   1.157       .  T
C893        N897   1.157       .  T
C894        N900   1.157       .  T
C895        N904   1.157       .  T
C896        N902   1.158       .  T
C905        C906   1.410       .  A
C905        C910   1.413       .  A
C905        C923   1.450       .  S
C906        C911   1.503       .  S
C906        C907   1.410       .  A
C907        C908   1.414       .  A
C907        C912   1.452       .  S
C908        C909   1.418       .  A
C908        C924   1.448       .  S
C909        C910   1.421       .  A
C910        C913   1.452       .  S
C911        C914   1.411       .  A
C911        C918   1.413       .  A
C912        N929   1.157       .  T
C913        N931   1.157       .  T
C914        C915   1.412       .  A
C914        C919   1.451       .  S
C915        C916   1.416       .  A
C915        C921   1.452       .  S
C916        C917   1.413       .  A
C917        C918   1.416       .  A
C917        C920   1.449       .  S
C918        C922   1.450       .  S
C919        N926   1.157       .  T
C920        N927   1.157       .  T
C921        N925   1.157       .  T
C922        N928   1.157       .  T
C923        N932   1.157       .  T
C924        N930   1.157   1_556  T
C933        C934   1.411       .  A
C933        C938   1.409       .  A
C933        C951   1.451       .  S
C934        C939   1.495       .  S
C934        C935   1.410       .  A
C935        C936   1.412       .  A
C935        C940   1.450       .  S
C936        C937   1.413       .  A
C936        C952   1.450       .  S
C937        C938   1.413       .  A
C938        C941   1.451       .  S
C939        C942   1.408       .  A
C939        C946   1.410       .  A
C940        N957   1.157       .  T
C941        N959   1.157       .  T
C942        C943   1.407       .  A
C942        C947   1.452       .  S
C943        C944   1.418       .  A
C943        C949   1.453       .  S
C944        C945   1.418       .  A
C945        C946   1.415       .  A
C945        C948   1.450       .  S
C946        C950   1.450       .  S
C947        N954   1.157       .  T
C948        N955   1.157       .  T
C949        N953   1.157       .  T
C950        N956   1.157       .  T
C951        N960   1.157       .  T
C952        N958   1.157       .  T
C961        C962   1.412       .  A
C961        C966   1.413       .  A
C961        C979   1.451       .  S
C962        C967   1.502       .  S
C962        C963   1.412       .  A
C963        C964   1.413       .  A
C963        C968   1.450       .  S
C964        C965   1.413       .  A
C964        C980   1.449       .  S
C965        C966   1.416       .  A
C966        C969   1.452       .  S
C967        C970   1.410       .  A
C967        C974   1.409       .  A
C968        N985   1.157       .  T
C969        N987   1.158       .  T
C970        C971   1.414       .  A
C970        C975   1.450       .  S
C971        C972   1.417       .  A
C971        C977   1.450       .  S
C972        C973   1.417       .  A
C973        C974   1.413       .  A
C973        C976   1.444       .  S
C974        C978   1.453       .  S
C975        N982   1.157       .  T
C976        N983   1.156       .  T
C977        N981   1.157       .  T
C978        N984   1.157       .  T
C979        N988   1.157       .  T
C980        N986   1.157       .  T
C989        C990   1.410       .  A
C989        C994   1.414       .  A
C989       C1007   1.450       .  S
C990        C995   1.499       .  S
C990        C991   1.410       .  A
C991        C992   1.410       .  A
C991        C996   1.451       .  S
C992        C993   1.417       .  A
C992       C1008   1.452       .  S
C993        C994   1.417       .  A
C994        C997   1.450       .  S
C995        C998   1.409       .  A
C995       C1002   1.410       .  A
C996       N1013   1.157       .  T
C997       N1015   1.157       .  T
C998        C999   1.412       .  A
C998       C1003   1.451       .  S
C999       C1000   1.420       .  A
C999       C1005   1.451       .  S
C1000      C1001   1.417       .  A
C1001      C1002   1.413       .  A
C1001      C1004   1.451       .  S
C1002      C1006   1.450       .  S
C1003      N1010   1.157       .  T
C1004      N1011   1.157       .  T
C1005      N1009   1.157       .  T
C1006      N1012   1.157       .  T
C1007      N1016   1.157       .  T
C1008      N1014   1.157       .  T
C1017      C1018   1.408       .  A
C1017      C1022   1.408       .  A
C1017      C1035   1.453   1_565  S
C1018      C1023   1.494   1_565  S
C1018      C1019   1.407       .  A
C1019      C1020   1.413       .  A
C1019      C1024   1.450       .  S
C1020      C1021   1.423       .  A
C1020      C1036   1.451       .  S
C1021      C1022   1.422       .  A
C1022      C1025   1.453       .  S
C1023      C1026   1.410       .  A
C1023      C1030   1.410       .  A
C1024      N1041   1.157       .  T
C1025      N1043   1.158       .  T
C1026      C1027   1.412       .  A
C1026      C1031   1.450       .  S
C1027      C1028   1.415       .  A
C1027      C1033   1.450       .  S
C1028      C1029   1.414       .  A
C1029      C1030   1.409       .  A
C1029      C1032   1.451       .  S
C1030      C1034   1.451       .  S
C1031      N1038   1.157       .  T
C1032      N1039   1.157       .  T
C1033      N1037   1.157       .  T
C1034      N1040   1.157       .  T
C1035      N1044   1.157       .  T
C1036      N1042   1.158       .  T
C1045      C1046   1.414       .  A
C1045      C1050   1.416       .  A
C1045      C1063   1.450       .  S
C1046      C1051   1.505       .  S
C1046      C1047   1.411       .  A
C1047      C1048   1.410       .  A
C1047      C1052   1.451       .  S
C1048      C1049   1.415       .  A
C1048      C1064   1.451       .  S
C1049      C1050   1.414       .  A
C1050      C1053   1.450       .  S
C1051      C1054   1.407       .  A
C1051      C1058   1.408       .  A
C1052      N1069   1.157       .  T
C1053      N1071   1.157       .  T
C1054      C1055   1.417       .  A
C1054      C1059   1.452       .  S
C1055      C1056   1.429       .  A
C1055      C1061   1.451       .  S
C1056      C1057   1.427       .  A
C1057      C1058   1.415       .  A
C1057      C1060   1.447       .  S
C1058      C1062   1.454       .  S
C1059      N1066   1.157       .  T
C1060      N1067   1.158   1_556  T
C1061      N1065   1.157       .  T
C1062      N1068   1.157       .  T
C1063      N1072   1.157       .  T
C1064      N1070   1.157       .  T
C1073      C1074   1.408       .  A
C1073      C1078   1.416       .  A
C1073      C1091   1.452       .  S
C1074      C1079   1.503       .  S
C1074      C1075   1.405       .  A
C1075      C1076   1.412       .  A
C1075      C1080   1.454       .  S
C1076      C1077   1.428       .  A
C1076      C1092   1.446       .  S
C1077      C1078   1.424       .  A
C1078      C1081   1.448       .  S
C1079      C1082   1.411       .  A
C1079      C1086   1.411       .  A
C1080      N1097   1.157       .  T
C1081      N1099   1.157       .  T
C1082      C1083   1.414       .  A
C1082      C1087   1.452       .  S
C1083      C1084   1.420       .  A
C1083      C1089   1.451       .  S
C1084      C1085   1.420       .  A
C1085      C1086   1.412       .  A
C1085      C1088   1.452       .  S
C1086      C1090   1.452       .  S
C1087      N1094   1.157       .  T
C1088      N1095   1.157       .  T
C1089      N1093   1.157       .  T
C1090      N1096   1.157       .  T
C1091      N1100   1.157       .  T
C1092      N1098   1.157       .  T
C1101      C1102   1.410       .  A
C1101      C1106   1.411       .  A
C1101      C1119   1.451       .  S
C1102      C1107   1.503       .  S
C1102      C1103   1.414       .  A
C1103      C1104   1.416       .  A
C1103      C1108   1.450       .  S
C1104      C1105   1.414       .  A
C1104      C1120   1.450       .  S
C1105      C1106   1.417       .  A
C1106      C1109   1.452       .  S
C1107      C1110   1.409       .  A
C1107      C1114   1.409       .  A
C1108      N1125   1.157       .  T
C1109      N1127   1.157       .  T
C1110      C1111   1.415       .  A
C1110      C1115   1.452       .  S
C1111      C1112   1.423       .  A
C1111      C1117   1.447       .  S
C1112      C1113   1.423       .  A
C1113      C1114   1.411       .  A
C1113      C1116   1.452       .  S
C1114      C1118   1.451       .  S
C1115      N1122   1.157       .  T
C1116      N1123   1.157       .  T
C1117      N1121   1.157       .  T
C1118      N1124   1.157       .  T
C1119      N1128   1.157       .  T
C1120      N1126   1.157       .  T
C1129      C1130   1.411       .  A
C1129      C1134   1.417       .  A
C1129      C1147   1.450       .  S
C1130      C1135   1.508       .  S
C1130      C1131   1.410       .  A
C1131      C1132   1.415       .  A
C1131      C1136   1.452       .  S
C1132      C1133   1.419       .  A
C1132      C1148   1.449       .  S
C1133      C1134   1.420       .  A
C1134      C1137   1.450       .  S
C1135      C1138   1.411       .  A
C1135      C1142   1.413       .  A
C1136      N1153   1.157       .  T
C1137      N1155   1.157       .  T
C1138      C1139   1.414       .  A
C1138      C1143   1.450       .  S
C1139      C1140   1.418       .  A
C1139      C1145   1.451       .  S
C1140      C1141   1.415       .  A
C1141      C1142   1.417       .  A
C1141      C1144   1.448       .  S
C1142      C1146   1.450       .  S
C1143      N1150   1.157       .  T
C1144      N1151   1.157       .  T
C1145      N1149   1.157       .  T
C1146      N1152   1.157       .  T
C1147      N1156   1.157       .  T
C1148      N1154   1.157       .  T
C1157      C1158   1.412       .  A
C1157      C1162   1.413       .  A
C1157      C1175   1.450       .  S
C1158      C1163   1.503       .  S
C1158      C1159   1.411       .  A
C1159      C1160   1.413       .  A
C1159      C1164   1.451       .  S
C1160      C1161   1.412       .  A
C1160      C1176   1.447       .  S
C1161      C1162   1.415       .  A
C1162      C1165   1.451       .  S
C1163      C1166   1.412       .  A
C1163      C1170   1.411       .  A
C1164      N1181   1.157       .  T
C1165      N1183   1.157       .  T
C1166      C1167   1.414       .  A
C1166      C1171   1.451       .  S
C1167      C1168   1.419       .  A
C1167      C1173   1.452       .  S
C1168      C1169   1.416       .  A
C1169      C1170   1.413       .  A
C1169      C1172   1.450       .  S
C1170      C1174   1.450       .  S
C1171      N1178   1.157       .  T
C1172      N1179   1.157       .  T
C1173      N1177   1.158       .  T
C1174      N1180   1.157       .  T
C1175      N1184   1.157       .  T
C1176      N1182   1.156       .  T
C1185      C1186   1.405       .  A
C1185      C1190   1.413       .  A
C1185      C1203   1.452       .  S
C1186      C1191   1.498       .  S
C1186      C1187   1.407       .  A
C1187      C1188   1.413       .  A
C1187      C1192   1.453       .  S
C1188      C1189   1.423       .  A
C1188      C1204   1.447       .  S
C1189      C1190   1.426       .  A
C1190      C1193   1.449       .  S
C1191      C1194   1.411       .  A
C1191      C1198   1.411       .  A
C1192      N1209   1.157       .  T
C1193      N1211   1.157       .  T
C1194      C1195   1.411       .  A
C1194      C1199   1.450       .  S
C1195      C1196   1.413       .  A
C1195      C1201   1.450       .  S
C1196      C1197   1.416       .  A
C1197      C1198   1.412       .  A
C1197      C1200   1.452       .  S
C1198      C1202   1.451       .  S
C1199      N1206   1.157       .  T
C1200      N1207   1.158       .  T
C1201      N1205   1.157       .  T
C1202      N1208   1.157       .  T
C1203      N1212   1.157       .  T
C1204      N1210   1.157       .  T
C1213      C1214   1.404       .  A
C1213      C1218   1.412       .  A
C1213      C1231   1.456       .  S
C1214      C1219   1.504       .  S
C1214      C1215   1.403       .  A
C1215      C1216   1.418       .  A
C1215      C1220   1.451       .  S
C1216      C1217   1.436       .  A
C1216      C1232   1.451       .  S
C1217      C1218   1.436       .  A
C1218      C1221   1.447       .  S
C1219      C1222   1.408       .  A
C1219      C1226   1.409       .  A
C1220      N1237   1.157       .  T
C1221      N1239   1.158       .  T
C1222      C1223   1.406       .  A
C1222      C1227   1.454       .  S
C1223      C1224   1.426       .  A
C1223      C1229   1.451       .  S
C1224      C1225   1.429       .  A
C1225      C1226   1.420       .  A
C1225      C1228   1.448       .  S
C1226      C1230   1.451       .  S
C1227      N1234   1.157       .  T
C1228      N1235   1.158       .  T
C1229      N1233   1.157       .  T
C1230      N1236   1.157       .  T
C1231      N1240   1.157       .  T
C1232      N1238   1.158       .  T
C1241      C1242   1.414       .  A
C1241      C1246   1.414       .  A
C1241      C1259   1.451       .  S
C1242      C1247   1.507       .  S
C1242      C1243   1.415       .  A
C1243      C1244   1.412       .  A
C1243      C1248   1.451       .  S
C1244      C1245   1.412       .  A
C1244      C1260   1.451       .  S
C1245      C1246   1.412       .  A
C1246      C1249   1.448       .  S
C1247      C1250   1.412       .  A
C1247      C1254   1.410       .  A
C1248      N1265   1.157       .  T
C1249      N1267   1.156       .  T
C1250      C1251   1.417       .  A
C1250      C1255   1.452       .  S
C1251      C1252   1.423       .  A
C1251      C1257   1.447       .  S
C1252      C1253   1.421       .  A
C1253      C1254   1.410       .  A
C1253      C1256   1.450       .  S
C1254      C1258   1.451       .  S
C1255      N1262   1.157       .  T
C1256      N1263   1.157       .  T
C1257      N1261   1.157       .  T
C1258      N1264   1.157       .  T
C1259      N1268   1.157       .  T
C1260      N1266   1.157       .  T
C1269      C1270   1.405       .  A
C1269      C1274   1.413       .  A
C1269      C1287   1.453       .  S
C1270      C1275   1.499       .  S
C1270      C1271   1.406       .  A
C1271      C1272   1.414       .  A
C1271      C1276   1.451       .  S
C1272      C1273   1.426       .  A
C1272      C1288   1.450       .  S
C1273      C1274   1.429       .  A
C1274      C1277   1.448       .  S
C1275      C1278   1.412       .  A
C1275      C1282   1.410       .  A
C1276      N1293   1.157       .  T
C1277      N1295   1.157       .  T
C1278      C1279   1.412       .  A
C1278      C1283   1.450       .  S
C1279      C1280   1.413       .  A
C1279      C1285   1.450       .  S
C1280      C1281   1.416       .  A
C1281      C1282   1.411       .  A
C1281      C1284   1.452       .  S
C1282      C1286   1.450       .  S
C1283      N1290   1.157       .  T
C1284      N1291   1.157       .  T
C1285      N1289   1.157       .  T
C1286      N1292   1.157       .  T
C1287      N1296   1.157       .  T
C1288      N1294   1.157       .  T
C1297      C1298   1.407       .  A
C1297      C1302   1.415       .  A
C1297      C1315   1.453       .  S
C1298      C1303   1.502       .  S
C1298      C1299   1.406       .  A
C1299      C1300   1.414       .  A
C1299      C1304   1.452       .  S
C1300      C1301   1.429       .  A
C1300      C1316   1.451       .  S
C1301      C1302   1.427       .  A
C1302      C1305   1.447       .  S
C1303      C1306   1.411       .  A
C1303      C1310   1.410       .  A
C1304      N1321   1.157       .  T
C1305      N1323   1.158       .  T
C1306      C1307   1.413       .  A
C1306      C1311   1.452       .  S
C1307      C1308   1.420       .  A
C1307      C1313   1.451       .  S
C1308      C1309   1.418       .  A
C1309      C1310   1.413       .  A
C1309      C1312   1.451       .  S
C1310      C1314   1.451       .  S
C1311      N1318   1.157       .  T
C1312      N1319   1.157       .  T
C1313      N1317   1.158       .  T
C1314      N1320   1.157       .  T
C1315      N1324   1.157       .  T
C1316      N1322   1.157       .  T
C1325      C1326   1.410       .  A
C1325      C1330   1.414       .  A
C1325      C1343   1.451       .  S
C1326      C1331   1.506       .  S
C1326      C1327   1.409       .  A
C1327      C1328   1.415       .  A
C1327      C1332   1.450       .  S
C1328      C1329   1.424       .  A
C1328      C1344   1.451       .  S
C1329      C1330   1.423       .  A
C1330      C1333   1.450       .  S
C1331      C1334   1.402       .  A
C1331      C1338   1.404       .  A
C1332      N1349   1.157       .  T
C1333      N1351   1.158       .  T
C1334      C1335   1.415       .  A
C1334      C1339   1.454       .  S
C1335      C1336   1.438       .  A
C1335      C1341   1.451       .  S
C1336      C1337   1.438       .  A
C1337      C1338   1.421       .  A
C1337      C1340   1.445       .  S
C1338      C1342   1.454       .  S
C1339      N1346   1.157       .  T
C1340      N1347   1.157       .  T
C1341      N1345   1.158       .  T
C1342      N1348   1.157       .  T
C1343      N1352   1.157       .  T
C1344      N1350   1.158       .  T
C1353      C1354   1.415       .  A
C1353      C1358   1.412       .  A
C1353      C1371   1.450       .  S
C1354      C1359   1.506       .  S
C1354      C1355   1.415       .  A
C1355      C1356   1.412       .  A
C1355      C1360   1.451       .  S
C1356      C1357   1.411       .  A
C1356      C1372   1.451       .  S
C1357      C1358   1.410       .  A
C1358      C1361   1.451       .  S
C1359      C1362   1.409       .  A
C1359      C1366   1.410       .  A
C1360      N1377   1.157       .  T
C1361      N1379   1.157       .  T
C1362      C1363   1.415       .  A
C1362      C1367   1.453       .  S
C1363      C1364   1.425       .  A
C1363      C1369   1.448       .  S
C1364      C1365   1.425       .  A
C1365      C1366   1.414       .  A
C1365      C1368   1.451       .  S
C1366      C1370   1.451       .  S
C1367      N1374   1.157       .  T
C1368      N1375   1.157       .  T
C1369      N1373   1.157       .  T
C1370      N1376   1.157       .  T
C1371      N1380   1.157       .  T
C1372      N1378   1.157       .  T
C1381      C1382   1.409       .  A
C1381      C1386   1.413       .  A
C1381      C1399   1.450       .  S
C1382      C1387   1.500       .  S
C1382      C1383   1.409       .  A
C1383      C1384   1.414       .  A
C1383      C1388   1.451       .  S
C1384      C1385   1.417       .  A
C1384      C1400   1.445       .  S
C1385      C1386   1.419       .  A
C1386      C1389   1.450       .  S
C1387      C1390   1.411       .  A
C1387      C1394   1.412       .  A
C1388      N1405   1.157       .  T
C1389      N1407   1.157       .  T
C1390      C1391   1.412       .  A
C1390      C1395   1.451       .  S
C1391      C1392   1.415       .  A
C1391      C1397   1.452       .  S
C1392      C1393   1.412       .  A
C1393      C1394   1.413       .  A
C1393      C1396   1.450       .  S
C1394      C1398   1.449       .  S
C1395      N1402   1.157       .  T
C1396      N1403   1.157       .  T
C1397      N1401   1.158       .  T
C1398      N1404   1.157       .  T
C1399      N1408   1.157       .  T
C1400      N1406   1.156       .  T
C1409      C1410   1.406       .  A
C1409      C1414   1.414       .  A
C1409      C1427   1.452       .  S
C1410      C1415   1.508       .  S
C1410      C1411   1.408       .  A
C1411      C1412   1.418       .  A
C1411      C1416   1.452       .  S
C1412      C1413   1.428       .  A
C1412      C1428   1.447       .  S
C1413      C1414   1.430       .  A
C1414      C1417   1.450       .  S
C1415      C1418   1.407       .  A
C1415      C1422   1.404       .  A
C1416      N1433   1.157       .  T
C1417      N1435   1.157       .  T
C1418      C1419   1.420       .  A
C1418      C1423   1.451       .  S
C1419      C1420   1.432       .  A
C1419      C1425   1.449       .  S
C1420      C1421   1.433       .  A
C1421      C1422   1.414       .  A
C1421      C1424   1.448       .  S
C1422      C1426   1.454       .  S
C1423      N1430   1.157       .  T
C1424      N1431   1.156       .  T
C1425      N1429   1.158       .  T
C1426      N1432   1.157       .  T
C1427      N1436   1.157       .  T
C1428      N1434   1.157       .  T
C1437      C1438   1.405       .  A
C1437      C1442   1.414       .  A
C1437      C1455   1.455       .  S
C1438      C1443   1.502       .  S
C1438      C1439   1.405       .  A
C1439      C1440   1.416       .  A
C1439      C1444   1.452       .  S
C1440      C1441   1.427       .  A
C1440      C1456   1.446       .  S
C1441      C1442   1.427       .  A
C1442      C1445   1.445       .  S
C1443      C1446   1.411       .  A
C1443      C1450   1.412       .  A
C1444      N1461   1.157       .  T
C1445      N1463   1.157       .  T
C1446      C1447   1.412       .  A
C1446      C1451   1.451       .  S
C1447      C1448   1.418       .  A
C1447      C1453   1.452       .  S
C1448      C1449   1.415       .  A
C1449      C1450   1.413       .  A
C1449      C1452   1.450       .  S
C1450      C1454   1.450       .  S
C1451      N1458   1.157       .  T
C1452      N1459   1.157       .  T
C1453      N1457   1.158       .  T
C1454      N1460   1.157       .  T
C1455      N1464   1.157       .  T
C1456      N1462   1.156       .  T
C1465      C1466   1.410       .  A
C1465      C1470   1.413       .  A
C1465      C1483   1.450       .  S
C1466      C1471   1.505       .  S
C1466      C1467   1.411       .  A
C1467      C1468   1.413       .  A
C1467      C1472   1.451       .  S
C1468      C1469   1.423       .  A
C1468      C1484   1.450       .  S
C1469      C1470   1.418       .  A
C1470      C1473   1.446       .  S
C1471      C1474   1.408       .  A
C1471      C1478   1.407       .  A
C1472      N1489   1.157       .  T
C1473      N1491   1.157       .  T
C1474      C1475   1.415       .  A
C1474      C1479   1.452       .  S
C1475      C1476   1.429       .  A
C1475      C1481   1.450       .  S
C1476      C1477   1.430       .  A
C1477      C1478   1.415       .  A
C1477      C1480   1.451       .  S
C1478      C1482   1.453       .  S
C1479      N1486   1.157       .  T
C1480      N1487   1.157       .  T
C1481      N1485   1.158       .  T
C1482      N1488   1.157       .  T
C1483      N1492   1.157       .  T
C1484      N1490   1.158       .  T
C1493      C1494   1.410       .  A
C1493      C1498   1.416       .  A
C1493      C1511   1.452       .  S
C1494      C1499   1.514       .  S
C1494      C1495   1.412       .  A
C1495      C1496   1.418       .  A
C1495      C1500   1.453       .  S
C1496      C1497   1.425       .  A
C1496      C1512   1.449       .  S
C1497      C1498   1.426       .  A
C1498      C1501   1.448       .  S
C1499      C1502   1.416       .  A
C1499      C1506   1.416       .  A
C1500      N1517   1.157       .  T
C1501      N1519   1.157       .  T
C1502      C1503   1.414       .  A
C1502      C1507   1.450       .  S
C1503      C1504   1.412       .  A
C1503      C1509   1.451       .  S
C1504      C1505   1.412       .  A
C1505      C1506   1.415       .  A
C1505      C1508   1.448       .  S
C1506      C1510   1.451       .  S
C1507      N1514   1.157       .  T
C1508      N1515   1.157       .  T
C1509      N1513   1.157       .  T
C1510      N1516   1.157       .  T
C1511      N1520   1.157       .  T
C1512      N1518   1.157       .  T
C1521      C1522   1.409       .  A
C1521      C1526   1.411       .  A
C1521      C1539   1.451       .  S
C1522      C1527   1.499       .  S
C1522      C1523   1.410       .  A
C1523      C1524   1.412       .  A
C1523      C1528   1.451       .  S
C1524      C1525   1.419       .  A
C1524      C1540   1.451       .  S
C1525      C1526   1.420       .  A
C1526      C1529   1.451       .  S
C1527      C1530   1.407       .  A
C1527      C1534   1.413       .  A
C1528      N1545   1.157       .  T
C1529      N1547   1.157       .  T
C1530      C1531   1.408       .  A
C1530      C1535   1.451       .  S
C1531      C1532   1.420       .  A
C1531      C1537   1.452       .  S
C1532      C1533   1.413       .  A
C1533      C1534   1.414       .  A
C1533      C1536   1.446       .  S
C1534      C1538   1.451       .  S
C1535      N1542   1.157       .  T
C1536      N1543   1.157       .  T
C1537      N1541   1.157       .  T
C1538      N1544   1.157       .  T
C1539      N1548   1.157       .  T
C1540      N1546   1.157       .  T
C1549      C1550   1.413       .  A
C1549      C1554   1.414       .  A
C1549      C1567   1.451       .  S
C1550      C1555   1.501       .  S
C1550      C1551   1.411       .  A
C1551      C1552   1.409       .  A
C1551      C1556   1.452       .  S
C1552      C1553   1.417       .  A
C1552      C1568   1.452       .  S
C1553      C1554   1.415       .  A
C1554      C1557   1.450       .  S
C1555      C1558   1.410       .  A
C1555      C1562   1.409       .  A
C1556      N1573   1.157       .  T
C1557      N1575   1.157       .  T
C1558      C1559   1.414       .  A
C1558      C1563   1.452       .  S
C1559      C1560   1.418       .  A
C1559      C1565   1.445       .  S
C1560      C1561   1.418       .  A
C1561      C1562   1.409       .  A
C1561      C1564   1.450       .  S
C1562      C1566   1.451       .  S
C1563      N1570   1.157       .  T
C1564      N1571   1.157       .  T
C1565      N1569   1.156   1_554  T
C1566      N1572   1.157       .  T
C1567      N1576   1.157       .  T
C1568      N1574   1.157       .  T
C1577      C1578   1.410       .  A
C1577      C1582   1.410       .  A
C1577      C1595   1.452       .  S
C1578      C1583   1.498   1_545  S
C1578      C1579   1.411       .  A
C1579      C1580   1.413       .  A
C1579      C1584   1.450       .  S
C1580      C1581   1.416       .  A
C1580      C1596   1.451       .  S
C1581      C1582   1.416       .  A
C1582      C1585   1.451       .  S
C1583      C1586   1.410       .  A
C1583      C1590   1.411       .  A
C1584      N1601   1.157       .  T
C1585      N1603   1.157       .  T
C1586      C1587   1.408       .  A
C1586      C1591   1.452   1_565  S
C1587      C1588   1.417       .  A
C1587      C1593   1.452       .  S
C1588      C1589   1.418       .  A
C1589      C1590   1.415       .  A
C1589      C1592   1.451       .  S
C1590      C1594   1.450       .  S
C1591      N1598   1.157       .  T
C1592      N1599   1.158       .  T
C1593      N1597   1.157       .  T
C1594      N1600   1.157   1_565  T
C1595      N1604   1.157       .  T
C1596      N1602   1.157       .  T
C1605      C1606   1.410       .  A
C1605      C1610   1.411       .  A
C1605      C1623   1.451       .  S
C1606      C1611   1.501       .  S
C1606      C1607   1.411       .  A
C1607      C1608   1.415       .  A
C1607      C1612   1.450       .  S
C1608      C1609   1.418       .  A
C1608      C1624   1.450       .  S
C1609      C1610   1.418       .  A
C1610      C1613   1.452       .  S
C1611      C1614   1.410       .  A
C1611      C1618   1.412       .  A
C1612      N1629   1.157       .  T
C1613      N1631   1.157       .  T
C1614      C1615   1.412       .  A
C1614      C1619   1.451       .  S
C1615      C1616   1.418       .  A
C1615      C1621   1.451       .  S
C1616      C1617   1.413       .  A
C1617      C1618   1.413       .  A
C1617      C1620   1.450       .  S
C1618      C1622   1.450       .  S
C1619      N1626   1.157       .  T
C1620      N1627   1.157       .  T
C1621      N1625   1.157       .  T
C1622      N1628   1.157       .  T
C1623      N1632   1.157       .  T
C1624      N1630   1.157       .  T
C1633      C1634   1.410       .  A
C1633      C1638   1.415       .  A
C1633      C1651   1.452       .  S
C1634      C1639   1.502       .  S
C1634      C1635   1.408       .  A
C1635      C1636   1.414       .  A
C1635      C1640   1.451       .  S
C1636      C1637   1.422       .  A
C1636      C1652   1.451       .  S
C1637      C1638   1.421       .  A
C1638      C1641   1.451       .  S
C1639      C1642   1.406       .  A
C1639      C1646   1.410       .  A
C1640      N1657   1.157       .  T
C1641      N1659   1.158       .  T
C1642      C1643   1.411       .  A
C1642      C1647   1.452       .  S
C1643      C1644   1.419       .  A
C1643      C1649   1.445       .  S
C1644      C1645   1.417       .  A
C1645      C1646   1.417       .  A
C1645      C1648   1.448       .  S
C1646      C1650   1.450       .  S
C1647      N1654   1.157       .  T
C1648      N1655   1.157       .  T
C1649      N1653   1.155       .  T
C1650      N1656   1.157       .  T
C1651      N1660   1.157       .  T
C1652      N1658   1.157       .  T
C1661      C1662   1.410       .  A
C1661      C1666   1.408       .  A
C1661      C1679   1.451       .  S
C1662      C1667   1.497       .  S
C1662      C1663   1.412       .  A
C1663      C1664   1.414       .  A
C1663      C1668   1.450       .  S
C1664      C1665   1.414       .  A
C1664      C1680   1.450       .  S
C1665      C1666   1.414       .  A
C1666      C1669   1.452       .  S
C1667      C1670   1.410       .  A
C1667      C1674   1.409       .  A
C1668      N1685   1.157       .  T
C1669      N1687   1.157       .  T
C1670      C1671   1.410       .  A
C1670      C1675   1.451       .  S
C1671      C1672   1.418       .  A
C1671      C1677   1.452       .  S
C1672      C1673   1.418       .  A
C1673      C1674   1.413       .  A
C1673      C1676   1.450       .  S
C1674      C1678   1.450       .  S
C1675      N1682   1.157       .  T
C1676      N1683   1.157       .  T
C1677      N1681   1.158       .  T
C1678      N1684   1.157       .  T
C1679      N1688   1.157       .  T
C1680      N1686   1.157       .  T
C1689      C1690   1.410       .  A
C1689      C1694   1.414       .  A
C1689      C1707   1.452       .  S
C1690      C1695   1.503       .  S
C1690      C1691   1.409       .  A
C1691      C1692   1.416       .  A
C1691      C1696   1.450       .  S
C1692      C1693   1.421       .  A
C1692      C1708   1.450       .  S
C1693      C1694   1.422       .  A
C1694      C1697   1.451       .  S
C1695      C1698   1.408       .  A
C1695      C1702   1.409       .  A
C1696      N1713   1.157       .  T
C1697      N1715   1.158       .  T
C1698      C1699   1.415       .  A
C1698      C1703   1.451       .  S
C1699      C1700   1.421       .  A
C1699      C1705   1.449       .  S
C1700      C1701   1.418       .  A
C1701      C1702   1.414       .  A
C1701      C1704   1.449       .  S
C1702      C1706   1.451       .  S
C1703      N1710   1.157       .  T
C1704      N1711   1.157       .  T
C1705      N1709   1.157       .  T
C1706      N1712   1.157       .  T
C1707      N1716   1.157       .  T
C1708      N1714   1.157       .  T
C1717      C1718   1.411       .  A
C1717      C1722   1.412       .  A
C1717      C1735   1.451       .  S
C1718      C1723   1.499       .  S
C1718      C1719   1.410       .  A
C1719      C1720   1.411       .  A
C1719      C1724   1.450       .  S
C1720      C1721   1.418       .  A
C1720      C1736   1.453       .  S
C1721      C1722   1.413       .  A
C1722      C1725   1.449       .  S
C1723      C1726   1.409       .  A
C1723      C1730   1.410       .  A
C1724      N1741   1.157       .  T
C1725      N1743   1.157       .  T
C1726      C1727   1.412       .  A
C1726      C1731   1.451       .  S
C1727      C1728   1.418       .  A
C1727      C1733   1.450       .  S
C1728      C1729   1.420       .  A
C1729      C1730   1.413       .  A
C1729      C1732   1.451       .  S
C1730      C1734   1.452       .  S
C1731      N1738   1.157       .  T
C1732      N1739   1.157       .  T
C1733      N1737   1.157       .  T
C1734      N1740   1.157       .  T
C1735      N1744   1.157       .  T
C1736      N1742   1.157       .  T
C1745      C1746   1.411       .  A
C1745      C1750   1.412       .  A
C1745      C1763   1.450       .  S
C1746      C1751   1.498       .  S
C1746      C1747   1.411       .  A
C1747      C1748   1.411       .  A
C1747      C1752   1.451       .  S
C1748      C1749   1.416       .  A
C1748      C1764   1.452       .  S
C1749      C1750   1.414       .  A
C1750      C1753   1.450       .  S
C1751      C1754   1.410       .  A
C1751      C1758   1.409       .  A
C1752      N1769   1.157       .  T
C1753      N1771   1.157       .  T
C1754      C1755   1.415       .  A
C1754      C1759   1.450       .  S
C1755      C1756   1.418       .  A
C1755      C1761   1.450       .  S
C1756      C1757   1.421       .  A
C1757      C1758   1.409       .  A
C1757      C1760   1.452       .  S
C1758      C1762   1.453       .  S
C1759      N1766   1.157       .  T
C1760      N1767   1.158       .  T
C1761      N1765   1.157       .  T
C1762      N1768   1.157       .  T
C1763      N1772   1.157       .  T
C1764      N1770   1.158       .  T
C1773      C1774   1.413       .  A
C1773      C1778   1.414       .  A
C1773      C1791   1.450       .  S
C1774      C1779   1.502   1_565  S
C1774      C1775   1.412       .  A
C1775      C1776   1.410       .  A
C1775      C1780   1.451       .  S
C1776      C1777   1.416       .  A
C1776      C1792   1.452       .  S
C1777      C1778   1.415       .  A
C1778      C1781   1.451       .  S
C1779      C1782   1.412       .  A
C1779      C1786   1.413       .  A
C1780      N1797   1.157   1_565  T
C1781      N1799   1.157       .  T
C1782      C1783   1.411       .  A
C1782      C1787   1.451       .  S
C1783      C1784   1.416       .  A
C1783      C1789   1.451       .  S
C1784      C1785   1.416       .  A
C1785      C1786   1.414       .  A
C1785      C1788   1.451       .  S
C1786      C1790   1.451       .  S
C1787      N1794   1.157   1_545  T
C1788      N1795   1.157       .  T
C1789      N1793   1.157       .  T
C1790      N1796   1.157       .  T
C1791      N1800   1.157       .  T
C1792      N1798   1.158       .  T
C1801      C1802   1.411       .  A
C1801      C1806   1.413       .  A
C1801      C1819   1.451       .  S
C1802      C1807   1.503       .  S
C1802      C1803   1.411       .  A
C1803      C1804   1.414       .  A
C1803      C1808   1.452       .  S
C1804      C1805   1.421       .  A
C1804      C1820   1.451       .  S
C1805      C1806   1.419       .  A
C1806      C1809   1.451       .  S
C1807      C1810   1.410       .  A
C1807      C1814   1.412       .  A
C1808      N1825   1.157       .  T
C1809      N1827   1.157       .  T
C1810      C1811   1.412       .  A
C1810      C1815   1.450       .  S
C1811      C1812   1.421       .  A
C1811      C1817   1.452       .  S
C1812      C1813   1.414       .  A
C1813      C1814   1.413       .  A
C1813      C1816   1.446       .  S
C1814      C1818   1.451       .  S
C1815      N1822   1.157       .  T
C1816      N1823   1.156       .  T
C1817      N1821   1.157       .  T
C1818      N1824   1.157       .  T
C1819      N1828   1.157       .  T
C1820      N1826   1.157       .  T
C1829      C1830   1.414       .  A
C1829      C1834   1.413       .  A
C1829      C1847   1.450       .  S
C1830      C1835   1.507       .  S
C1830      C1831   1.414       .  A
C1831      C1832   1.414       .  A
C1831      C1836   1.449       .  S
C1832      C1833   1.412       .  A
C1832      C1848   1.451       .  S
C1833      C1834   1.412       .  A
C1834      C1837   1.450       .  S
C1835      C1838   1.413       .  A
C1835      C1842   1.412       .  A
C1836      N1853   1.157       .  T
C1837      N1855   1.157       .  T
C1838      C1839   1.416       .  A
C1838      C1843   1.450       .  S
C1839      C1840   1.418       .  A
C1839      C1845   1.450       .  S
C1840      C1841   1.418       .  A
C1841      C1842   1.413       .  A
C1841      C1844   1.451       .  S
C1842      C1846   1.452       .  S
C1843      N1850   1.157       .  T
C1844      N1851   1.157       .  T
C1845      N1849   1.157       .  T
C1846      N1852   1.157       .  T
C1847      N1856   1.157       .  T
C1848      N1854   1.157       .  T
C1857      C1858   1.412       .  A
C1857      C1862   1.410       .  A
C1857      C1875   1.452       .  S
C1858      C1863   1.501       .  S
C1858      C1859   1.413       .  A
C1859      C1860   1.413       .  A
C1859      C1864   1.451       .  S
C1860      C1861   1.415       .  A
C1860      C1876   1.451       .  S
C1861      C1862   1.416       .  A
C1862      C1865   1.452       .  S
C1863      C1866   1.411       .  A
C1863      C1870   1.411       .  A
C1864      N1881   1.157       .  T
C1865      N1883   1.157       .  T
C1866      C1867   1.412       .  A
C1866      C1871   1.452       .  S
C1867      C1868   1.415       .  A
C1867      C1873   1.447       .  S
C1868      C1869   1.419       .  A
C1869      C1870   1.411       .  A
C1869      C1872   1.452       .  S
C1870      C1874   1.451       .  S
C1871      N1878   1.157       .  T
C1872      N1879   1.157       .  T
C1873      N1877   1.156       .  T
C1874      N1880   1.157       .  T
C1875      N1884   1.157       .  T
C1876      N1882   1.157       .  T
C1885      C1886   1.410       .  A
C1885      C1890   1.410       .  A
C1885      C1903   1.451       .  S
C1886      C1891   1.501       .  S
C1886      C1887   1.413       .  A
C1887      C1888   1.414       .  A
C1887      C1892   1.451       .  S
C1888      C1889   1.415       .  A
C1888      C1904   1.450       .  S
C1889      C1890   1.418       .  A
C1890      C1893   1.452       .  S
C1891      C1894   1.406       .  A
C1891      C1898   1.407       .  A
C1892      N1909   1.157       .  T
C1893      N1911   1.157       .  T
C1894      C1895   1.414       .  A
C1894      C1899   1.454       .  S
C1895      C1896   1.431       .  A
C1895      C1901   1.448       .  S
C1896      C1897   1.425       .  A
C1897      C1898   1.412       .  A
C1897      C1900   1.451       .  S
C1898      C1902   1.451       .  S
C1899      N1906   1.157       .  T
C1900      N1907   1.157       .  T
C1901      N1905   1.158   1_554  T
C1902      N1908   1.157       .  T
C1903      N1912   1.157       .  T
C1904      N1910   1.157       .  T
C1913      C1914   1.411       .  A
C1913      C1918   1.411       .  A
C1913      C1931   1.451       .  S
C1914      C1919   1.497   1_455  S
C1914      C1915   1.411       .  A
C1915      C1916   1.411       .  A
C1915      C1920   1.450       .  S
C1916      C1917   1.415       .  A
C1916      C1932   1.451       .  S
C1917      C1918   1.416       .  A
C1918      C1921   1.451       .  S
C1919      C1922   1.410       .  A
C1919      C1926   1.410       .  A
C1920      N1937   1.157   1_455  T
C1921      N1939   1.157       .  T
C1922      C1923   1.413       .  A
C1922      C1927   1.450       .  S
C1923      C1924   1.417       .  A
C1923      C1929   1.450       .  S
C1924      C1925   1.419       .  A
C1925      C1926   1.409       .  A
C1925      C1928   1.452       .  S
C1926      C1930   1.452       .  S
C1927      N1934   1.157       .  T
C1928      N1935   1.158       .  T
C1929      N1933   1.157       .  T
C1930      N1936   1.157       .  T
C1931      N1940   1.157   1_455  T
C1932      N1938   1.157       .  T
C1941      C1942   1.407       .  A
C1941      C1946   1.413       .  A
C1941      C1959   1.452       .  S
C1942      C1947   1.500       .  S
C1942      C1943   1.408       .  A
C1943      C1944   1.413       .  A
C1943      C1948   1.453       .  S
C1944      C1945   1.422       .  A
C1944      C1960   1.448       .  S
C1945      C1946   1.424       .  A
C1946      C1949   1.450       .  S
C1947      C1950   1.410       .  A
C1947      C1954   1.410       .  A
C1948      N1965   1.157       .  T
C1949      N1967   1.157       .  T
C1950      C1951   1.413       .  A
C1950      C1955   1.451       .  S
C1951      C1952   1.419       .  A
C1951      C1957   1.451       .  S
C1952      C1953   1.419       .  A
C1953      C1954   1.411       .  A
C1953      C1956   1.451       .  S
C1954      C1958   1.452       .  S
C1955      N1962   1.157       .  T
C1956      N1963   1.157       .  T
C1957      N1961   1.157       .  T
C1958      N1964   1.157       .  T
C1959      N1968   1.157       .  T
C1960      N1966   1.157       .  T
C1969      C1970   1.413       .  A
C1969      C1974   1.412       .  A
C1969      C1987   1.450       .  S
C1970      C1975   1.496       .  S
C1970      C1971   1.411       .  A
C1971      C1972   1.409       .  A
C1971      C1976   1.451       .  S
C1972      C1973   1.413       .  A
C1972      C1988   1.452       .  S
C1973      C1974   1.411       .  A
C1974      C1977   1.450       .  S
C1975      C1978   1.407       .  A
C1975      C1982   1.409       .  A
C1976      N1993   1.157       .  T
C1977      N1995   1.157       .  T
C1978      C1979   1.410       .  A
C1978      C1983   1.453       .  S
C1979      C1980   1.417       .  A
C1979      C1985   1.446       .  S
C1980      C1981   1.419       .  A
C1981      C1982   1.413       .  A
C1981      C1984   1.451       .  S
C1982      C1986   1.450       .  S
C1983      N1990   1.157       .  T
C1984      N1991   1.157       .  T
C1985      N1989   1.156   1_554  T
C1986      N1992   1.157       .  T
C1987      N1996   1.157       .  T
C1988      N1994   1.157       .  T
C1997      C1998   1.410       .  A
C1997      C2002   1.407       .  A
C1997      C2015   1.452       .  S
C1998      C2003   1.495       .  S
C1998      C1999   1.411       .  A
C1999      C2000   1.413       .  A
C1999      C2004   1.450       .  S
C2000      C2001   1.415       .  A
C2000      C2016   1.450       .  S
C2001      C2002   1.415       .  A
C2002      C2005   1.452       .  S
C2003      C2006   1.410       .  A
C2003      C2010   1.412       .  A
C2004      N2021   1.157       .  T
C2005      N2023   1.157       .  T
C2006      C2007   1.408       .  A
C2006      C2011   1.451       .  S
C2007      C2008   1.416       .  A
C2007      C2013   1.453       .  S
C2008      C2009   1.414       .  A
C2009      C2010   1.411       .  A
C2009      C2012   1.451       .  S
C2010      C2014   1.451       .  S
C2011      N2018   1.157       .  T
C2012      N2019   1.157       .  T
C2013      N2017   1.158       .  T
C2014      N2020   1.157       .  T
C2015      N2024   1.157       .  T
C2016      N2022   1.157       .  T
C2025      C2026   1.409       .  A
C2025      C2030   1.410       .  A
C2025      C2043   1.451       .  S
C2026      C2031   1.496       .  S
C2026      C2027   1.409       .  A
C2027      C2028   1.413       .  A
C2027      C2032   1.451       .  S
C2028      C2029   1.419       .  A
C2028      C2044   1.451       .  S
C2029      C2030   1.419       .  A
C2030      C2033   1.451       .  S
C2031      C2034   1.412       .  A
C2031      C2038   1.408       .  A
C2032      N2049   1.157       .  T
C2033      N2051   1.157       .  T
C2034      C2035   1.414       .  A
C2034      C2039   1.450       .  S
C2035      C2036   1.411       .  A
C2035      C2041   1.448       .  S
C2036      C2037   1.415       .  A
C2037      C2038   1.408       .  A
C2037      C2040   1.450       .  S
C2038      C2042   1.451       .  S
C2039      N2046   1.157       .  T
C2040      N2047   1.157       .  T
C2041      N2045   1.157       .  T
C2042      N2048   1.157       .  T
C2043      N2052   1.157       .  T
C2044      N2050   1.157       .  T
C2053      C2054   1.411       .  A
C2053      C2058   1.413       .  A
C2053      C2071   1.450       .  S
C2054      C2059   1.499       .  S
C2054      C2055   1.410       .  A
C2055      C2056   1.411       .  A
C2055      C2060   1.451       .  S
C2056      C2057   1.416       .  A
C2056      C2072   1.452       .  S
C2057      C2058   1.415       .  A
C2058      C2061   1.451       .  S
C2059      C2062   1.410       .  A
C2059      C2066   1.411       .  A
C2060      N2077   1.157       .  T
C2061      N2079   1.157       .  T
C2062      C2063   1.412       .  A
C2062      C2067   1.450       .  S
C2063      C2064   1.414       .  A
C2063      C2069   1.451       .  S
C2064      C2065   1.412       .  A
C2065      C2066   1.413       .  A
C2065      C2068   1.450       .  S
C2066      C2070   1.450       .  S
C2067      N2074   1.157       .  T
C2068      N2075   1.157       .  T
C2069      N2073   1.157       .  T
C2070      N2076   1.157       .  T
C2071      N2080   1.157       .  T
C2072      N2078   1.157       .  T
C2081      C2082   1.410       .  A
C2081      C2086   1.406       .  A
C2081      C2099   1.451       .  S
C2082      C2087   1.491       .  S
C2082      C2083   1.411       .  A
C2083      C2084   1.410       .  A
C2083      C2088   1.450       .  S
C2084      C2085   1.413       .  A
C2084      C2100   1.450       .  S
C2085      C2086   1.414       .  A
C2086      C2089   1.452       .  S
C2087      C2090   1.408       .  A
C2087      C2094   1.411       .  A
C2088      N2105   1.157       .  T
C2089      N2107   1.157       .  T
C2090      C2091   1.410       .  A
C2090      C2095   1.450       .  S
C2091      C2092   1.417       .  A
C2091      C2097   1.451       .  S
C2092      C2093   1.417       .  A
C2093      C2094   1.406       .  A
C2093      C2096   1.452       .  S
C2094      C2098   1.453       .  S
C2095      N2102   1.157       .  T
C2096      N2103   1.158       .  T
C2097      N2101   1.157       .  T
C2098      N2104   1.157       .  T
C2099      N2108   1.157       .  T
C2100      N2106   1.157       .  T
C2109      C2110   1.410       .  A
C2109      C2114   1.409       .  A
C2109      C2127   1.451   1_455  S
C2110      C2115   1.495   1_455  S
C2110      C2111   1.410       .  A
C2111      C2112   1.411       .  A
C2111      C2116   1.450       .  S
C2112      C2113   1.415       .  A
C2112      C2128   1.451       .  S
C2113      C2114   1.415       .  A
C2114      C2117   1.452       .  S
C2115      C2118   1.410       .  A
C2115      C2122   1.409       .  A
C2116      N2133   1.157   1_455  T
C2117      N2135   1.158       .  T
C2118      C2119   1.412       .  A
C2118      C2123   1.451       .  S
C2119      C2120   1.416       .  A
C2119      C2125   1.451       .  S
C2120      C2121   1.417       .  A
C2121      C2122   1.410       .  A
C2121      C2124   1.452       .  S
C2122      C2126   1.451       .  S
C2123      N2130   1.157       .  T
C2124      N2131   1.158       .  T
C2125      N2129   1.157       .  T
C2126      N2132   1.157       .  T
C2127      N2136   1.157       .  T
C2128      N2134   1.157       .  T
C2137      C2138   1.408       .  A
C2137      C2142   1.410       .  A
C2137      C2155   1.451       .  S
C2138      C2143   1.493       .  S
C2138      C2139   1.409       .  A
C2139      C2140   1.411       .  A
C2139      C2144   1.452       .  S
C2140      C2141   1.419       .  A
C2140      C2156   1.452       .  S
C2141      C2142   1.417       .  A
C2142      C2145   1.451       .  S
C2143      C2146   1.412       .  A
C2143      C2150   1.409       .  A
C2144      N2161   1.157       .  T
C2145      N2163   1.157       .  T
C2146      C2147   1.408       .  A
C2146      C2151   1.450       .  S
C2147      C2148   1.409       .  A
C2147      C2153   1.451       .  S
C2148      C2149   1.414       .  A
C2149      C2150   1.410       .  A
C2149      C2152   1.451       .  S
C2150      C2154   1.450       .  S
C2151      N2158   1.157       .  T
C2152      N2159   1.157       .  T
C2153      N2157   1.157       .  T
C2154      N2160   1.157       .  T
C2155      N2164   1.157       .  T
C2156      N2162   1.158       .  T
C2165      C2166   1.407       .  A
C2165      C2170   1.410       .  A
C2165      C2183   1.452       .  S
C2166      C2171   1.492       .  S
C2166      C2167   1.407       .  A
C2167      C2168   1.409       .  A
C2167      C2172   1.451       .  S
C2168      C2169   1.420       .  A
C2168      C2184   1.451       .  S
C2169      C2170   1.421       .  A
C2170      C2173   1.451       .  S
C2171      C2174   1.404       .  A
C2171      C2178   1.407       .  A
C2172      N2189   1.157       .  T
C2173      N2191   1.158       .  T
C2174      C2175   1.409       .  A
C2174      C2179   1.452       .  S
C2175      C2176   1.424       .  A
C2175      C2181   1.449       .  S
C2176      C2177   1.420       .  A
C2177      C2178   1.411       .  A
C2177      C2180   1.448       .  S
C2178      C2182   1.452       .  S
C2179      N2186   1.157       .  T
C2180      N2187   1.157       .  T
C2181      N2185   1.157       .  T
C2182      N2188   1.157       .  T
C2183      N2192   1.157       .  T
C2184      N2190   1.157       .  T
