geometry optimzed in LAMMPS
_audit_creation_date              2020-12-01 
_audit_creation_method            'lammps2cif' 
_symmetry_space_group_name_H-M    'P1' 
_symmetry_Int_Tables_number       1 
_symmetry_cell_setting            triclinic 
loop_ 
_symmetry_equiv_pos_as_xyz 
  x,y,z 
_cell_length_a                    34.24039457 
_cell_length_b                    35.07432165278404 
_cell_length_c                    30.591155199942815 
_cell_angle_alpha                 90.04127155648898 
_cell_angle_beta                  91.79674311846698 
_cell_angle_gamma                 90.01007990702259 
loop_ 
_atom_site_label 
_atom_site_type_symbol 
_atom_site_fract_x 
_atom_site_fract_y 
_atom_site_fract_z 
_atom_site_charge 
O1          O  0.54331395  0.78920271  0.04608748    -0.72500
O2          O  0.45701407  0.78922742  0.45348167    -0.73400
O3          O  0.54023159  0.78944919  0.45390715    -0.62100
O4          O  0.46010333  0.78926369  0.04577335    -0.70500
O5          O  0.45972832  0.85256802  0.04575687    -0.70000
O6          O  0.54050136  0.85275720  0.45403067    -0.61300
O7          O  0.45824147  0.85252049  0.45295362    -0.73800
O8          O  0.54200137  0.85249484  0.04676287    -0.72600
Cu9        Cu  0.50018159  0.78705317  0.49982176     1.04600
Cu10       Cu  0.50009086  0.85476182  0.99985948     1.04300
C11         C  0.55603146  0.82100887  0.06116620     0.93700
C12         C  0.44426573  0.82102258  0.43845573     0.92900
C13         C  0.55321500  0.82107006  0.43962427     0.85000
C14         C  0.44709198  0.82085467  0.06014958     0.91300
C15         C  0.63904910  0.78920504  0.37445071     0.03600
C16         C  0.60906320  0.78977462  0.40447530    -0.12500
C17         C  0.58359674  0.82079421  0.40673751     0.01100
C18         C  0.58728130  0.85115220  0.37751457    -0.11100
C19         C  0.61647656  0.85080558  0.34635023     0.03600
C20         C  0.64304311  0.82011679  0.34546680    -0.10500
H21         H  0.60601948  0.76610507  0.42690888     0.09200
H22         H  0.56700933  0.87485556  0.37856024     0.06700
H23         H  0.66521175  0.81946790  0.32099481     0.06600
C24         C  0.35152571  0.79855042  0.37208196     0.03600
C25         C  0.38248983  0.79529194  0.40333590    -0.12500
C26         C  0.41327972  0.82189091  0.40394529     0.01100
C27         C  0.41366022  0.85082802  0.37230711    -0.11100
C28         C  0.38320727  0.85399707  0.34094255     0.03600
C29         C  0.35205959  0.82821930  0.34149915    -0.10500
H30         H  0.38192177  0.77345056  0.42828872     0.09200
H31         H  0.43750415  0.87117512  0.37240636     0.06700
H32         H  0.32837936  0.83077388  0.31729667     0.06600
C33         C  0.64858317  0.79845677  0.12778994     0.03600
C34         C  0.61773528  0.79525206  0.09637799    -0.12500
C35         C  0.58699207  0.82189691  0.09568649     0.01100
C36         C  0.58657245  0.85084854  0.12733879    -0.11100
C37         C  0.61691890  0.85394887  0.15882587     0.03600
C38         C  0.64798625  0.82809943  0.15842131    -0.10500
H39         H  0.61835147  0.77340170  0.07140208     0.09200
H40         H  0.56278024  0.87124773  0.12717194     0.06700
H41         H  0.67157209  0.83060157  0.18275517     0.06600
C42         C  0.36130965  0.78900304  0.12550332     0.03600
C43         C  0.39134800  0.78948153  0.09551562    -0.12500
C44         C  0.41676897  0.82054719  0.09313139     0.01100
C45         C  0.41303920  0.85100345  0.12226371    -0.11100
C46         C  0.38381796  0.85075366  0.15339421     0.03600
C47         C  0.35726863  0.82004425  0.15435636    -0.10500
H48         H  0.39443204  0.76573256  0.07316534     0.09200
H49         H  0.43328433  0.87473134  0.12115581     0.06700
H50         H  0.33507719  0.81948945  0.17880312     0.06600
O51         O  0.58320557  0.97701130  0.20700371    -0.72500
O52         O  0.58473127  0.89519580  0.29865920    -0.73400
O53         O  0.58377745  0.97597835  0.30027144    -0.62100
O54         O  0.58394569  0.89648791  0.20578860    -0.70500
O55         O  0.64883077  0.89672613  0.20822934    -0.70000
O56         O  0.64862648  0.97576616  0.30224877    -0.61300
O57         O  0.64959337  0.89425070  0.30012814    -0.73800
O58         O  0.64804273  0.97765669  0.20997296    -0.72600
Cu59       Cu  0.58164155  0.93613233  0.25290753     1.04600
Cu60       Cu  0.65102533  0.93614849  0.25522740     1.04300
C61         C  0.61558874  0.99035982  0.19410082     0.93700
C62         C  0.61712762  0.88151825  0.31349703     0.92900
C63         C  0.61629839  0.98871269  0.31586012     0.85000
C64         C  0.61647696  0.88394916  0.19235026     0.91300
O65         O  0.35135023  0.89677994  0.29146779    -0.72500
O66         O  0.35190750  0.97587852  0.19754342    -0.73400
O67         O  0.35070467  0.89434803  0.19951767    -0.62100
O68         O  0.35234176  0.97779606  0.28981493    -0.70500
O69         O  0.41717458  0.97706213  0.29285783    -0.70000
O70         O  0.41556775  0.89522195  0.20107078    -0.61300
O71         O  0.41675482  0.97602549  0.19960228    -0.73800
O72         O  0.41622760  0.89648765  0.29396938    -0.72600
Cu73       Cu  0.34932184  0.93625270  0.24449638     1.04600
Cu74       Cu  0.41870042  0.93615342  0.24690157     1.04300
C75         C  0.38367388  0.88397421  0.30738083     0.93700
C76         C  0.38427151  0.98881271  0.18401111     0.92900
C77         C  0.38316538  0.88156017  0.18618998     0.85000
C78         C  0.38480449  0.99049765  0.30570486     0.91300
O79         O  0.45766335  0.08752904  0.04479359    -0.72500
O80         O  0.54287735  0.08735033  0.45516108    -0.73400
O81         O  0.45851449  0.08739779  0.45151832    -0.62100
O82         O  0.54203334  0.08720884  0.04835562    -0.70500
O83         O  0.54091332  0.02394819  0.04821420    -0.70000
O84         O  0.45935435  0.02413566  0.45158172    -0.61300
O85         O  0.54169630  0.02410636  0.45524505    -0.73800
O86         O  0.45860460  0.02428322  0.04460069    -0.72600
Cu87       Cu  0.50030134  0.08970299  0.49994704     1.04600
Cu88       Cu  0.50016443  0.02206201  0.49988590     1.04300
C89         C  0.44490143  0.05564605  0.05885598     0.93700
C90         C  0.55554875  0.05542574  0.44108454     0.92900
C91         C  0.44587536  0.05553373  0.43632868     0.85000
C92         C  0.55454194  0.05529858  0.06348627     0.91300
C93         C  0.35300172  0.07699269  0.36957448     0.03600
C94         C  0.35347484  0.04697791  0.33930516    -0.12500
C95         C  0.38473972  0.02127189  0.33872160     0.01100
C96         C  0.41546780  0.02504206  0.36987330    -0.11100
C97         C  0.41519252  0.05439750  0.40122302     0.03600
C98         C  0.38421499  0.08077646  0.40045826    -0.10500
H99         H  0.32952223  0.04397332  0.31551830     0.09200
H100        H  0.43932673  0.00472322  0.37021435     0.06700
H101        H  0.38357716  0.10276753  0.42527104     0.06600
C102        C  0.64877319  0.07566852  0.38036313     0.03600
C103        C  0.64825801  0.04488549  0.35116539    -0.12500
C104        C  0.61679670  0.01944323  0.34887553     0.01100
C105        C  0.58607133  0.02396238  0.37764978    -0.11100
C106        C  0.58642415  0.05394050  0.40827425     0.03600
C107        C  0.61745847  0.08043286  0.40879846    -0.10500
H108        H  0.67219347  0.04132355  0.32912861     0.09200
H109        H  0.56206649  0.00378920  0.37662176     0.06700
H110        H  0.61815430  0.10328836  0.43262808     0.06600
C111        C  0.64755916  0.07653939  0.13002429     0.03600
C112        C  0.61634329  0.08032627  0.09916979    -0.12500
C113        C  0.58527049  0.05406888  0.09851553     0.01100
C114        C  0.58493349  0.02478819  0.12990505    -0.11100
C115        C  0.61568977  0.02102091  0.16102188     0.03600
C116        C  0.64703477  0.04662410  0.16034638    -0.10500
H117        H  0.61702009  0.10224288  0.07430988     0.09200
H118        H  0.56100203  0.00454524  0.12963744     0.06700
H119        H  0.67099461  0.04363767  0.18412275     0.06600
C120        C  0.35178583  0.07587043  0.11988155     0.03600
C121        C  0.35237015  0.04503458  0.14895506    -0.12500
C122        C  0.38382649  0.01961627  0.15112299     0.01100
C123        C  0.41453563  0.02422434  0.12235580    -0.11100
C124        C  0.41411467  0.05422016  0.09178567     0.03600
C125        C  0.38305672  0.08069261  0.09138014    -0.10500
H126        H  0.32846555  0.04139439  0.17101343     0.09200
H127        H  0.43855087  0.00407192  0.12330023     0.06700
H128        H  0.38231807  0.10354852  0.06759325     0.06600
O129        O  0.95997578  0.58510996  0.29631708    -0.72500
O130        O  0.03971830  0.58519979  0.20405600    -0.73400
O131        O  0.95648053  0.58520249  0.20405231    -0.62100
O132        O  0.04321372  0.58528648  0.29640507    -0.70500
O133        O  0.04186368  0.52199744  0.29700075    -0.70000
O134        O  0.95791561  0.52191313  0.20340171    -0.61300
O135        O  0.04017662  0.52189769  0.20417215    -0.73800
O136        O  0.95962793  0.52180355  0.29618034    -0.72600
Cu137      Cu  0.99984682  0.58744933  0.25021033     1.04600
Cu138      Cu  0.99990098  0.51971861  0.25018697     1.04300
C139        C  0.94699877  0.55350450  0.31064661     0.93700
C140        C  0.05273298  0.55360981  0.18968280     0.92900
C141        C  0.94378814  0.55336111  0.18902470     0.85000
C142        C  0.05593432  0.55347309  0.31143063     0.91300
O143        O  0.95786187  0.28682516  0.20165411    -0.72500
O144        O  0.04157669  0.28663895  0.29841581    -0.73400
O145        O  0.95719596  0.28673823  0.29490166    -0.62100
O146        O  0.04222604  0.28649498  0.20510018    -0.70500
O147        O  0.04129569  0.34973934  0.20532206    -0.70000
O148        O  0.95840647  0.34998012  0.29475187    -0.61300
O149        O  0.04073464  0.34989694  0.29831468    -0.73800
O150        O  0.95900781  0.35008166  0.20178314    -0.72600
Cu151      Cu  0.99971100  0.28433449  0.25002086     1.04600
Cu152      Cu  0.99987170  0.35197030  0.25004758     1.04300
C153        C  0.94538157  0.31873588  0.18648893     0.93700
C154        C  0.05420770  0.31850883  0.31360722     0.92900
C155        C  0.94456524  0.31868208  0.30897754     0.85000
C156        C  0.05495525  0.31838252  0.19100547     0.91300
O157        O  0.08372270  0.47786920  0.45582808    -0.72500
O158        O  0.08294622  0.39831211  0.05027568    -0.73400
O159        O  0.08419564  0.47916091  0.04871428    -0.62100
O160        O  0.08262508  0.39726388  0.45701858    -0.70500
O161        O  0.14745601  0.39646132  0.46020242    -0.70000
O162        O  0.14906115  0.47997362  0.05039401    -0.61300
O163        O  0.14779269  0.39841974  0.05242159    -0.73800
O164        O  0.14859493  0.47746757  0.45848386    -0.72600
Cu165      Cu  0.08109683  0.43819880  0.00292848     1.04600
Cu166      Cu  0.15047312  0.43801734  0.00546648     1.04300
C167        C  0.11632965  0.49032535  0.44248294     0.93700
C168        C  0.11541013  0.38547375  0.06587926     0.92900
C169        C  0.11658740  0.49281751  0.06362491     0.85000
C170        C  0.11500224  0.38377046  0.44427227     0.91300
C171        C  0.14910868  0.57528785  0.37734867     0.03600
C172        C  0.14837244  0.54572393  0.40805596    -0.12500
C173        C  0.11694951  0.52026795  0.40886662     0.01100
C174        C  0.08641615  0.52366928  0.37763332    -0.11100
C175        C  0.08698235  0.55250320  0.34587571     0.03600
C176        C  0.11805601  0.57877645  0.34623008    -0.10500
H177        H  0.17212304  0.54300363  0.43214594     0.09200
H178        H  0.06236987  0.50355582  0.37770008     0.06700
H179        H  0.11876776  0.60052063  0.32117476     0.06600
C180        C  0.14684334  0.29704695  0.38088129     0.03600
C181        C  0.11574576  0.29323560  0.34984401    -0.12500
C182        C  0.08481492  0.31968037  0.34882089     0.01100
C183        C  0.08447883  0.34912041  0.38007630    -0.11100
C184        C  0.11509927  0.35291554  0.41135908     0.03600
C185        C  0.14630644  0.32714232  0.41103084    -0.10500
H186        H  0.11644538  0.27116219  0.32513114     0.09200
H187        H  0.06065835  0.36948413  0.37956402     0.06700
H188        H  0.17016948  0.33016129  0.43493029     0.06600
C189        C  0.14786933  0.29817275  0.12960343     0.03600
C190        C  0.14725907  0.32908542  0.10063463    -0.12500
C191        C  0.11584226  0.35456290  0.09864882     0.01100
C192        C  0.08519091  0.34991015  0.12748166    -0.11100
C193        C  0.08564607  0.31983445  0.15796109     0.03600
C194        C  0.11666301  0.29332034  0.15818390    -0.10500
H195        H  0.17112079  0.33275213  0.07852426     0.09200
H196        H  0.06120836  0.37009946  0.12667421     0.06700
H197        H  0.11743112  0.27041014  0.18190191     0.06600
C198        C  0.13822332  0.58559419  0.12393938     0.03600
C199        C  0.10826015  0.58508437  0.15401734    -0.12500
C200        C  0.08297026  0.55393056  0.15659449     0.01100
C201        C  0.08674993  0.52341392  0.12755075    -0.11100
C202        C  0.11590010  0.52369023  0.09633375     0.03600
C203        C  0.14232101  0.55449517  0.09518181    -0.10500
H204        H  0.10514543  0.60887837  0.17629804     0.09200
H205        H  0.06660161  0.49961587  0.12879489     0.06700
H206        H  0.16445672  0.55506856  0.07067130     0.06600
O207        O  0.85063158  0.48015627  0.44998628    -0.72500
O208        O  0.85216406  0.39653480  0.03988091    -0.73400
O209        O  0.85127113  0.47745475  0.04180029    -0.62100
O210        O  0.85160243  0.39863730  0.44768645    -0.70500
O211        O  0.91645052  0.39840531  0.44976127    -0.70000
O212        O  0.91615035  0.47780137  0.04440206    -0.61300
O213        O  0.91699927  0.39724743  0.04300722    -0.73800
O214        O  0.91549562  0.47922152  0.45155895    -0.72600
Cu215      Cu  0.84920794  0.43813038  0.99472098     1.04600
Cu216      Cu  0.91858912  0.43819260  0.99718687     1.04300
C217        C  0.88311722  0.49292652  0.43671350     0.93700
C218        C  0.88460626  0.38383545  0.05579545     0.92900
C219        C  0.88356424  0.49026526  0.05779409     0.85000
C220        C  0.88393840  0.38567136  0.43412970     0.91300
C221        C  0.85140171  0.29859275  0.36987451     0.03600
C222        C  0.88269517  0.29375234  0.34142668    -0.12500
C223        C  0.91374249  0.32022835  0.34185043     0.01100
C224        C  0.91413650  0.35027213  0.37240088    -0.11100
C225        C  0.88342723  0.35487844  0.40117842     0.03600
C226        C  0.85194960  0.32944493  0.39897719    -0.10500
H227        H  0.88197010  0.27085126  0.31765507     0.09200
H228        H  0.93815154  0.37043354  0.37335808     0.06700
H229        H  0.82802637  0.33306606  0.42101841     0.06600
C230        C  0.86143707  0.58549071  0.37619244     0.03600
C231        C  0.85736674  0.55449458  0.40504080    -0.12500
C232        C  0.88381917  0.52372406  0.40397507     0.01100
C233        C  0.91296875  0.52338004  0.37275903    -0.11100
C234        C  0.91671431  0.55381316  0.34364919     0.03600
C235        C  0.89137626  0.58492008  0.34610965    -0.10500
H236        H  0.83523193  0.55513191  0.42955173     0.09200
H237        H  0.93314811  0.49960907  0.37157561     0.06700
H238        H  0.89446432  0.60864966  0.32376879     0.06600
C239        C  0.85074842  0.57518433  0.12293150     0.03600
C240        C  0.88169020  0.57862147  0.15419936    -0.12500
C241        C  0.91275315  0.55234307  0.15458680     0.01100
C242        C  0.91338796  0.52352656  0.12277691    -0.11100
C243        C  0.88295176  0.52018987  0.09142674     0.03600
C244        C  0.85157015  0.54567588  0.09214206    -0.10500
H245        H  0.88091326  0.60035175  0.17930265     0.09200
H246        H  0.93741310  0.50339556  0.12274036     0.06700
H247        H  0.82790606  0.54300863  0.06792873     0.06600
C248        C  0.85267844  0.29736275  0.11936333     0.03600
C249        C  0.88376748  0.29359703  0.15039035    -0.12500
C250        C  0.91474291  0.31997649  0.15133733     0.01100
C251        C  0.91511017  0.34934818  0.12005027    -0.11100
C252        C  0.88447936  0.35309027  0.08877097     0.03600
C253        C  0.85323228  0.32736734  0.08916325    -0.10500
H254        H  0.88305492  0.27159052  0.17514380     0.09200
H255        H  0.93896887  0.36967598  0.12051383     0.06700
H256        H  0.82937097  0.33033506  0.06525798     0.06600
C257        C  0.21748341  0.21103178  0.13240261     0.19200
C258        C  0.21186085  0.17226531  0.12289139    -0.18900
C259        C  0.24369976  0.14854789  0.11477463    -0.11200
C260        C  0.28215404  0.16297599  0.11680834     0.21400
C261        C  0.28777707  0.20174227  0.12631530    -0.20500
C262        C  0.25593844  0.22545958  0.13443239    -0.11400
C263        C  0.31694049  0.13828056  0.11019784    -0.15500
C264        C  0.31680102  0.10089973  0.11989161    -0.29400
C265        C  0.18269821  0.23572201  0.13905818    -0.03600
C266        C  0.18283652  0.27312030  0.12944486    -0.40200
H267        H  0.18263151  0.16042663  0.12087690     0.12600
H268        H  0.23791709  0.11909521  0.10632162     0.12200
H269        H  0.31700717  0.21357901  0.12833700     0.11600
H270        H  0.26172387  0.25491006  0.14289225     0.11900
H271        H  0.34408783  0.15177036  0.10119833     0.14600
H272        H  0.29055717  0.08849314  0.13291196     0.13400
H273        H  0.15555716  0.22222375  0.14806443     0.11100
H274        H  0.20906876  0.28554397  0.11641748     0.13100
C275        C  0.78285561  0.21125567  0.12916898     0.19200
C276        C  0.78797116  0.17176538  0.12528406    -0.18900
C277        C  0.75568687  0.14760457  0.12012756    -0.11200
C278        C  0.71747341  0.16248968  0.11958269     0.21400
C279        C  0.71235826  0.20197947  0.12343735    -0.20500
C280        C  0.74463905  0.22613809  0.12860004    -0.11400
C281        C  0.68245873  0.13761166  0.11531901    -0.15500
C282        C  0.68237239  0.10175783  0.13080613    -0.29400
C283        C  0.81786176  0.23614050  0.13357895    -0.03600
C284        C  0.81792868  0.27206012  0.11829490    -0.40200
H285        H  0.81707468  0.15963790  0.12547255     0.12600
H286        H  0.76082401  0.11739995  0.11599575     0.12200
H287        H  0.68325449  0.21410627  0.12326717     0.11600
H288        H  0.73948868  0.25633665  0.13275996     0.11900
H289        H  0.65554209  0.15011815  0.10228017     0.14600
H290        H  0.70848332  0.09096407  0.14763674     0.13400
H291        H  0.84477046  0.22362822  0.14663371     0.11100
H292        H  0.79184253  0.28287968  0.10143868     0.13100
C293        C  0.78238333  0.21114851  0.36741707     0.19200
C294        C  0.78814118  0.17288582  0.37921481    -0.18900
C295        C  0.75628422  0.14918973  0.38731814    -0.11200
C296        C  0.71775115  0.16312622  0.38299379     0.21400
C297        C  0.71199192  0.20138907  0.37119574    -0.20500
C298        C  0.74385041  0.22508746  0.36309777    -0.11400
C299        C  0.68306462  0.13832738  0.38950016    -0.15500
C300        C  0.68368370  0.10078874  0.38064657    -0.29400
C301        C  0.81707512  0.23593399  0.36087904    -0.03600
C302        C  0.81648116  0.27348110  0.36969337    -0.40200
H303        H  0.81745074  0.16147511  0.38302490     0.12600
H304        H  0.76203265  0.12014382  0.39749218     0.12200
H305        H  0.68268160  0.21279681  0.36737850     0.11600
H306        H  0.73810431  0.25413410  0.35292526     0.11900
H307        H  0.65562130  0.15178512  0.39749309     0.14600
H308        H  0.71026338  0.08834516  0.36846111     0.13400
H309        H  0.84450508  0.22245882  0.35286964     0.11100
H310        H  0.78991689  0.28594635  0.38189202     0.13100
C311        C  0.21702221  0.21113669  0.37099900     0.19200
C312        C  0.21220302  0.17165758  0.37548087    -0.18900
C313        C  0.24469012  0.14772173  0.38043720    -0.06400
C314        C  0.28280966  0.16280374  0.38019739     0.21400
C315        C  0.28763051  0.20228546  0.37576444    -0.20500
C316        C  0.25514526  0.22622045  0.37080094    -0.11400
C317        C  0.31799449  0.13810531  0.38427466    -0.15500
C318        C  0.31816043  0.10221054  0.36881537    -0.29400
C319        C  0.18183560  0.23582247  0.36672584    -0.03600
C320        C  0.18165903  0.27179696  0.38192589    -0.40200
H321        H  0.18318456  0.15937173  0.37589462     0.12600
H322        H  0.23980777  0.11752660  0.38500889     0.12200
H323        H  0.31664972  0.21456879  0.37533159     0.11600
H324        H  0.26003997  0.25640926  0.36619964     0.11900
H325        H  0.34490722  0.15073834  0.39718778     0.14600
H326        H  0.29200861  0.09132958  0.35211099     0.13400
H327        H  0.15493789  0.22315319  0.35381825     0.11100
H328        H  0.20777810  0.28274452  0.39863600     0.13100
C329        C  0.22556435  0.65501602  0.11790945     0.19200
C330        C  0.26562999  0.65067362  0.12740413    -0.18900
C331        C  0.28950862  0.68256832  0.13455471    -0.11200
C332        C  0.27387768  0.71967920  0.13155040     0.21400
C333        C  0.23380995  0.72402497  0.12207296    -0.20500
C334        C  0.20993009  0.69212875  0.11491727    -0.11400
C335        C  0.29869401  0.75429681  0.13710479    -0.15500
C336        C  0.33640338  0.75444546  0.12623487    -0.29400
C337        C  0.20077143  0.62038186  0.11233259    -0.03600
C338        C  0.16302683  0.62021549  0.12306000    -0.40200
H339        H  0.27836333  0.62247085  0.13015747     0.12600
H340        H  0.32005912  0.67795817  0.14300125     0.12200
H341        H  0.22108027  0.75222951  0.11932241     0.11600
H342        H  0.17938208  0.69674372  0.10646685     0.11900
H343        H  0.28481269  0.78085066  0.14625669     0.14600
H344        H  0.34890111  0.72862150  0.11296734     0.13400
H345        H  0.21470300  0.59381340  0.10332491     0.11100
H346        H  0.15044281  0.64605292  0.13618745     0.13100
C347        C  0.71730075  0.71151717  0.11940962     0.19200
C348        C  0.71144319  0.67207957  0.12244868    -0.18900
C349        C  0.74317515  0.64743800  0.12878644    -0.11200
C350        C  0.78161225  0.66178963  0.13140425     0.21400
C351        C  0.78745927  0.70122403  0.12835713    -0.20500
C352        C  0.75573849  0.72585611  0.12200899    -0.11400
C353        C  0.81617097  0.63647131  0.13688676    -0.15500
C354        C  0.81609557  0.60051928  0.12173647    -0.29400
C355        C  0.68279917  0.73690881  0.11392191    -0.03600
C356        C  0.68298460  0.77280831  0.12924613    -0.40200
H357        H  0.68215792  0.66036016  0.12071582     0.12600
H358        H  0.73736311  0.61729374  0.13226020     0.12200
H359        H  0.81673996  0.71295517  0.13008309     0.11600
H360        H  0.76156295  0.75599608  0.11850662     0.11900
H361        H  0.84304276  0.64872782  0.15042115     0.14600
H362        H  0.79017401  0.58983277  0.10442598     0.13400
H363        H  0.65595045  0.72479892  0.10014566     0.11100
H364        H  0.70888227  0.78327943  0.14678619     0.13100
C365        C  0.28270131  0.71163160  0.38067956     0.19200
C366        C  0.28852223  0.67217305  0.37779774    -0.18900
C367        C  0.25677581  0.64752085  0.37145992    -0.11200
C368        C  0.21834935  0.66187637  0.36869423     0.21400
C369        C  0.21253914  0.70133053  0.37159167    -0.20500
C370        C  0.24427395  0.72597292  0.37793988    -0.11400
C371        C  0.18376153  0.63654868  0.36324361    -0.15500
C372        C  0.18378901  0.60062620  0.37845951    -0.29400
C373        C  0.31723152  0.73703605  0.38611661    -0.03600
C374        C  0.31708634  0.77291013  0.37073619    -0.40200
H375        H  0.31779408  0.66044061  0.37964365     0.12600
H376        H  0.26257453  0.61736183  0.36810385     0.12200
H377        H  0.18327185  0.71307474  0.36975315     0.11600
H378        H  0.23846203  0.75612753  0.38132537     0.11900
H379        H  0.15690565  0.64879447  0.34968950     0.14600
H380        H  0.20970928  0.58996250  0.39575938     0.13400
H381        H  0.34407254  0.72493585  0.39988990     0.11100
H382        H  0.29118397  0.78336409  0.35322330     0.13100
C383        C  0.77428820  0.65498886  0.38222059     0.19200
C384        C  0.73427321  0.65077017  0.37237047    -0.18900
C385        C  0.71055580  0.68274764  0.36521667    -0.11200
C386        C  0.72630310  0.71980092  0.36858802     0.21400
C387        C  0.76631943  0.72402259  0.37843817    -0.20500
C388        C  0.79003936  0.69204220  0.38559160    -0.11400
C389        C  0.70162525  0.75447166  0.36304501    -0.15500
C390        C  0.66389028  0.75464135  0.37375837    -0.29400
C391        C  0.79894627  0.62030277  0.38773358    -0.03600
C392        C  0.83668696  0.62011048  0.37704810    -0.40200
H393        H  0.72146834  0.62260915  0.36932481     0.12600
H394        H  0.68004137  0.67825334  0.35647575     0.12200
H395        H  0.77912196  0.75218500  0.38147764     0.11600
H396        H  0.82055559  0.69653410  0.39432497     0.11900
H397        H  0.71559153  0.78101601  0.35403577     0.14600
H398        H  0.65131037  0.72882822  0.38693116     0.13400
H399        H  0.78494464  0.59375062  0.39664852     0.11100
H400        H  0.84931849  0.64593645  0.36397097     0.13100
O401        O  0.54334419  0.78921867  0.54613134    -0.72500
O402        O  0.45695556  0.78920631  0.95345335    -0.73400
O403        O  0.54017578  0.78940596  0.95385921    -0.62100
O404        O  0.46013436  0.78927989  0.54579234    -0.70500
O405        O  0.45974781  0.85258460  0.54577544    -0.70000
O406        O  0.54045350  0.85271407  0.95397446    -0.61300
O407        O  0.45819953  0.85249896  0.95292733    -0.73800
O408        O  0.54202130  0.85251071  0.54682112    -0.72600
Cu409      Cu  0.50013665  0.78702807  0.99978743     1.04600
Cu410      Cu  0.50012370  0.85478733  0.49990030     1.04300
C411        C  0.55605283  0.82102310  0.56122057     0.93700
C412        C  0.44421632  0.82100598  0.93842713     0.92900
C413        C  0.55316135  0.82102317  0.93957046     0.85000
C414        C  0.44711093  0.82086902  0.56015973     0.91300
C415        C  0.63904991  0.78919502  0.87445330     0.03600
C416        C  0.60903391  0.78973753  0.90444402    -0.12500
C417        C  0.58354638  0.82074356  0.90668830     0.01100
C418        C  0.58723281  0.85110536  0.87747427    -0.11100
C419        C  0.61645651  0.85078532  0.84634551     0.03600
C420        C  0.64304643  0.82011547  0.84548230    -0.10500
H421        H  0.60598971  0.76606434  0.92687223     0.09200
H422        H  0.56694662  0.87479799  0.87850829     0.06700
H423        H  0.66523976  0.81948880  0.82103755     0.06600
C424        C  0.35144476  0.79861301  0.87207868     0.03600
C425        C  0.38241190  0.79532832  0.90332446    -0.12500
C426        C  0.41323275  0.82189077  0.90391367     0.01100
C427        C  0.41363960  0.85081810  0.87226193    -0.11100
C428        C  0.38318078  0.85401260  0.84090588     0.03600
C429        C  0.35200466  0.82826926  0.84148391    -0.10500
H430        H  0.38182252  0.77349729  0.92828807     0.09200
H431        H  0.43750530  0.87114036  0.87234834     0.06700
H432        H  0.32831992  0.83084060  0.81728927     0.06600
C433        C  0.64860357  0.79848487  0.62785151     0.03600
C434        C  0.61775526  0.79526865  0.59644152    -0.12500
C435        C  0.58700563  0.82190736  0.59574748     0.01100
C436        C  0.58657595  0.85085756  0.62739847    -0.11100
C437        C  0.61692092  0.85396773  0.65888293     0.03600
C438        C  0.64799707  0.82812782  0.65848087    -0.10500
H439        H  0.61837947  0.77341783  0.57146618     0.09200
H440        H  0.56277904  0.87125149  0.62722912     0.06700
H441        H  0.67158371  0.83063906  0.68281278     0.06600
C442        C  0.36129924  0.78902514  0.62546552     0.03600
C443        C  0.39135385  0.78949333  0.59549871    -0.12500
C444        C  0.41677443  0.82055954  0.59312238     0.01100
C445        C  0.41302965  0.85102003  0.62224335    -0.11100
C446        C  0.38379615  0.85077253  0.65335716     0.03600
C447        C  0.35724520  0.82006719  0.65431031    -0.10500
H448        H  0.39444701  0.76574004  0.57315670     0.09200
H449        H  0.43327470  0.87474850  0.62114214     0.06700
H450        H  0.33504090  0.81951426  0.67874318     0.06600
O451        O  0.58318319  0.97703572  0.70706735    -0.72500
O452        O  0.58472340  0.89520129  0.79868585    -0.73400
O453        O  0.58377917  0.97598644  0.80034181    -0.62100
O454        O  0.58393761  0.89651357  0.70582883    -0.70500
O455        O  0.64882304  0.89675194  0.70827640    -0.70000
O456        O  0.64862716  0.97576187  0.80231700    -0.61300
O457        O  0.64958577  0.89425030  0.80016042    -0.73800
O458        O  0.64802062  0.97767780  0.71003749    -0.72600
Cu459      Cu  0.58163142  0.93614963  0.75295814     1.04600
Cu460      Cu  0.65101542  0.93616089  0.75527954     1.04300
C461        C  0.61556640  0.99038182  0.69416509     0.93700
C462        C  0.61711727  0.88151318  0.81351528     0.92900
C463        C  0.61630394  0.98870660  0.81594133     0.85000
C464        C  0.61647123  0.88397313  0.69239748     0.91300
O465        O  0.35133548  0.89679352  0.79142185    -0.72500
O466        O  0.35189135  0.97588274  0.69748481    -0.73400
O467        O  0.35067776  0.89435935  0.69947664    -0.62100
O468        O  0.35234424  0.97779581  0.78976448    -0.70500
O469        O  0.41717749  0.97706910  0.79280751    -0.70000
O470        O  0.41554165  0.89523451  0.70102946    -0.61300
O471        O  0.41673812  0.97602892  0.69954059    -0.73800
O472        O  0.41621246  0.89649642  0.79392618    -0.72600
Cu473      Cu  0.34930766  0.93626156  0.74444811     1.04600
Cu474      Cu  0.41868651  0.93616191  0.74685154     1.04300
C475        C  0.38365721  0.88398663  0.80733872     0.93700
C476        C  0.38425464  0.98880841  0.68393940     0.92900
C477        C  0.38313910  0.88157424  0.68615010     0.85000
C478        C  0.38480601  0.99049359  0.80566127     0.91300
O479        O  0.45770905  0.08751004  0.54475461    -0.72500
O480        O  0.54280952  0.08732788  0.95518297    -0.73400
O481        O  0.45843523  0.08737952  0.95154289    -0.62100
O482        O  0.54208378  0.08720794  0.54835028    -0.70500
O483        O  0.54097338  0.02394719  0.54819294    -0.70000
O484        O  0.45926691  0.02411782  0.95163173    -0.61300
O485        O  0.54161629  0.02408358  0.95527853    -0.73800
O486        O  0.45866176  0.02426433  0.54453936    -0.72600
Cu487      Cu  0.50023752  0.08969719  0.99996706     1.04600
Cu488      Cu  0.50008984  0.02205644  0.99992737     1.04300
C489        C  0.44493992  0.05561993  0.55879077     0.93700
C490        C  0.55548705  0.05539896  0.94112822     0.92900
C491        C  0.44579312  0.05551213  0.93636256     0.85000
C492        C  0.55458767  0.05529683  0.56348365     0.91300
C493        C  0.35292203  0.07691753  0.86956827     0.03600
C494        C  0.35343893  0.04692531  0.83927998    -0.12500
C495        C  0.38472694  0.02125143  0.83869335     0.01100
C496        C  0.41543995  0.02502881  0.86986515    -0.11100
C497        C  0.41512230  0.05436619  0.90123933     0.03600
C498        C  0.38411755  0.08071695  0.90047350    -0.10500
H499        H  0.32949850  0.04391354  0.81547847     0.09200
H500        H  0.43931639  0.00473010  0.87020397     0.06700
H501        H  0.38344419  0.10269696  0.92529731     0.06600
C502        C  0.64886651  0.07552931  0.88065522     0.03600
C503        C  0.64834094  0.04477383  0.85141623    -0.12500
C504        C  0.61681482  0.01940708  0.84899909     0.01100
C505        C  0.58604092  0.02396359  0.87770157    -0.11100
C506        C  0.58640532  0.05390384  0.90837177     0.03600
C507        C  0.61750209  0.08032924  0.90901541    -0.10500
H508        H  0.67231641  0.04118412  0.82943945     0.09200
H509        H  0.56198859  0.00384486  0.87658756     0.06700
H510        H  0.61820254  0.10315900  0.93287797     0.06600
C511        C  0.64757341  0.07653104  0.63007723     0.03600
C512        C  0.61637613  0.08031463  0.59919923    -0.12500
C513        C  0.58529424  0.05406808  0.59853816     0.01100
C514        C  0.58493043  0.02480111  0.62994514    -0.11100
C515        C  0.61567176  0.02103903  0.66108385     0.03600
C516        C  0.64702208  0.04663390  0.66041731    -0.10500
H517        H  0.61707564  0.10221852  0.57432601     0.09200
H518        H  0.56099445  0.00456307  0.62967063     0.06700
H519        H  0.67096936  0.04365115  0.68421026     0.06600
C520        C  0.35175194  0.07580412  0.61969871     0.03600
C521        C  0.35233774  0.04498918  0.64880241    -0.12500
C522        C  0.38380911  0.01958904  0.65101870     0.01100
C523        C  0.41453395  0.02419515  0.62226903    -0.11100
C524        C  0.41411996  0.05417826  0.59168167     0.03600
C525        C  0.38304124  0.08062733  0.59122273    -0.10500
H526        H  0.32842223  0.04135270  0.67084660     0.09200
H527        H  0.43856171  0.00405724  0.62324813     0.06700
H528        H  0.38230697  0.10346887  0.56741772     0.06600
O529        O  0.96001710  0.58516937  0.79631119    -0.72500
O530        O  0.03977064  0.58526342  0.70405705    -0.73400
O531        O  0.95653258  0.58526395  0.70404007    -0.62100
O532        O  0.04325158  0.58531734  0.79640608    -0.70500
O533        O  0.04189097  0.52202783  0.79698227    -0.70000
O534        O  0.95795962  0.52197434  0.70338973    -0.61300
O535        O  0.04021754  0.52196161  0.70415895    -0.73800
O536        O  0.95966242  0.52186369  0.79616744    -0.72600
Cu537      Cu  0.99989361  0.58750386  0.75020621     1.04600
Cu538      Cu  0.99993757  0.51977346  0.75017146     1.04300
C539        C  0.94703951  0.55356503  0.81064258     0.93700
C540        C  0.05277893  0.55367465  0.68967508     0.92900
C541        C  0.94383701  0.55342280  0.68901274     0.85000
C542        C  0.05596024  0.55349709  0.81142640     0.91300
O543        O  0.95790222  0.28678765  0.70159278    -0.72500
O544        O  0.04158705  0.28661166  0.79838704    -0.73400
O545        O  0.95721746  0.28668211  0.79484241    -0.62100
O546        O  0.04226725  0.28646159  0.70507109    -0.70500
O547        O  0.04133745  0.34970587  0.70530761    -0.70000
O548        O  0.95840814  0.34992423  0.79469177    -0.61300
O549        O  0.04072943  0.34986947  0.79829835    -0.73800
O550        O  0.95904992  0.35004382  0.70172475    -0.72600
Cu551      Cu  0.99974056  0.28429578  0.74997450     1.04600
Cu552      Cu  0.99989176  0.35193128  0.75000880     1.04300
C553        C  0.94542288  0.31869983  0.68642873     0.93700
C554        C  0.05419919  0.31848298  0.81359571     0.92900
C555        C  0.94457935  0.31862130  0.80892108     0.85000
C556        C  0.05499936  0.31835088  0.69098705     0.91300
O557        O  0.08372236  0.47786085  0.95581939    -0.72500
O558        O  0.08295162  0.39831247  0.55027521    -0.73400
O559        O  0.08419739  0.47917023  0.54872516    -0.62100
O560        O  0.08261513  0.39725330  0.95701783    -0.70500
O561        O  0.14744606  0.39643477  0.96019551    -0.70000
O562        O  0.14906308  0.47998768  0.55040314    -0.61300
O563        O  0.14779853  0.39843105  0.55242438    -0.73800
O564        O  0.14859473  0.47744933  0.95846746    -0.72600
Cu565      Cu  0.08109982  0.43820555  0.50293537     1.04600
Cu566      Cu  0.15047630  0.43803470  0.50547759     1.04300
C567        C  0.11632988  0.49031486  0.94247367     0.93700
C568        C  0.11541764  0.38547393  0.56587262     0.92900
C569        C  0.11658921  0.49283575  0.56362625     0.85000
C570        C  0.11498719  0.38374682  0.94427423     0.91300
C571        C  0.14908075  0.57532863  0.87740747     0.03600
C572        C  0.14835266  0.54575113  0.90809893    -0.12500
C573        C  0.11694952  0.52026878  0.90887090     0.01100
C574        C  0.08642894  0.52366349  0.87762050    -0.11100
C575        C  0.08699295  0.55251343  0.84588174     0.03600
C576        C  0.11804708  0.57880277  0.84626745    -0.10500
H577        H  0.17209114  0.54304044  0.93220512     0.09200
H578        H  0.06239459  0.50353564  0.87766174     0.06700
H579        H  0.11875536  0.60055313  0.82121943     0.06600
C580        C  0.14675832  0.29695301  0.88095844     0.03600
C581        C  0.11568191  0.29317541  0.84989205    -0.12500
C582        C  0.08478525  0.31965306  0.84883054     0.01100
C583        C  0.08446401  0.34910775  0.88006933    -0.11100
C584        C  0.11506830  0.35287718  0.91137807     0.03600
C585        C  0.14623863  0.32705859  0.91109731    -0.10500
H586        H  0.11637000  0.27109888  0.82518297     0.09200
H587        H  0.06066934  0.36950042  0.87952559     0.06700
H588        H  0.17008689  0.33005501  0.93501898     0.06600
C589        C  0.14786668  0.29811914  0.62949883     0.03600
C590        C  0.14725397  0.32904800  0.60055290    -0.12500
C591        C  0.11585538  0.35454703  0.59861943     0.01100
C592        C  0.08522490  0.34989816  0.62747725    -0.11100
C593        C  0.08568312  0.31980714  0.65793556     0.03600
C594        C  0.11668195  0.29327230  0.65811054    -0.10500
H595        H  0.17109801  0.33271149  0.57841810     0.09200
H596        H  0.06125446  0.37010125  0.62670253     0.06700
H597        H  0.11745183  0.27034673  0.68180917     0.06600
C598        C  0.13819570  0.58567787  0.62381378     0.03600
C599        C  0.10826281  0.58516855  0.65393047    -0.12500
C600        C  0.08300184  0.55399504  0.65656891     0.01100
C601        C  0.08678237  0.52345874  0.62755213    -0.11100
C602        C  0.11590502  0.52373094  0.59630612     0.03600
C603        C  0.14229600  0.55455626  0.59508918    -0.10500
H604        H  0.10514727  0.60897998  0.67618677     0.09200
H605        H  0.06665416  0.49964730  0.62883807     0.06700
H606        H  0.16440850  0.55512703  0.57055212     0.06600
O607        O  0.85069739  0.48012720  0.94993251    -0.72500
O608        O  0.85210411  0.39655824  0.53993032    -0.73400
O609        O  0.85122925  0.47748666  0.54186461    -0.62100
O610        O  0.85167631  0.39859448  0.94764270    -0.70500
O611        O  0.91652409  0.39836200  0.94972781    -0.70000
O612        O  0.91610875  0.47782399  0.54443568    -0.61300
O613        O  0.91693971  0.39727471  0.54303143    -0.73800
O614        O  0.91556118  0.47920090  0.95152098    -0.72600
Cu615      Cu  0.84914428  0.43816329  0.49477674     1.04600
Cu616      Cu  0.91852606  0.43822119  0.49722095     1.04300
C617        C  0.88318336  0.49291394  0.93668039     0.93700
C618        C  0.88455253  0.38385607  0.55582633     0.92900
C619        C  0.88353127  0.49029296  0.55784273     0.85000
C620        C  0.88401255  0.38561857  0.93410051     0.91300
C621        C  0.85148444  0.29847815  0.86993434     0.03600
C622        C  0.88275161  0.29365383  0.84144647    -0.12500
C623        C  0.91377637  0.32015655  0.84181830     0.01100
C624        C  0.91417953  0.35020800  0.87235954    -0.11100
C625        C  0.88349703  0.35480346  0.90117221     0.03600
C626        C  0.85203735  0.32934402  0.89902159    -0.10500
H627        H  0.88202145  0.27074170  0.81768838     0.09200
H628        H  0.93817993  0.37038613  0.87328121     0.06700
H629        H  0.82813294  0.33295705  0.92108960     0.06600
C630        C  0.86153792  0.58556203  0.87629675     0.03600
C631        C  0.85745692  0.55453574  0.90510335    -0.12500
C632        C  0.88388529  0.52374549  0.90397866     0.01100
C633        C  0.91301735  0.52341478  0.87274332    -0.11100
C634        C  0.91677052  0.55387274  0.84366766     0.03600
C635        C  0.89146136  0.58499974  0.84619153    -0.10500
H636        H  0.83533257  0.55516378  0.92962685     0.09200
H637        H  0.93317740  0.49963089  0.87151720     0.06700
H638        H  0.89455629  0.60875033  0.82388145     0.06600
C639        C  0.85078155  0.57524395  0.62296276     0.03600
C640        C  0.88174105  0.57868783  0.65420515    -0.12500
C641        C  0.91279476  0.55240226  0.65458532     0.01100
C642        C  0.91340138  0.52356844  0.62279307    -0.11100
C643        C  0.88294407  0.52022458  0.59146811     0.03600
C644        C  0.85157344  0.54572095  0.59219082    -0.10500
H645        H  0.88098385  0.60042798  0.67929865     0.09200
H646        H  0.93741983  0.50342997  0.62275154     0.06700
H647        H  0.82789458  0.54305056  0.56799605     0.06600
C648        C  0.85269746  0.29732889  0.61934756     0.03600
C649        C  0.88380900  0.29355489  0.65034447    -0.12500
C650        C  0.91477168  0.31994646  0.65129070     0.01100
C651        C  0.91510173  0.34934347  0.62003358    -0.11100
C652        C  0.88444809  0.35309579  0.58878358     0.03600
C653        C  0.85321523  0.32735707  0.58917508    -0.10500
H654        H  0.88312451  0.27153325  0.67508160     0.09200
H655        H  0.93895036  0.36968264  0.62049769     0.06700
H656        H  0.82933831  0.33033125  0.56529072     0.06600
C657        C  0.21744570  0.21094849  0.63215844     0.19200
C658        C  0.21181383  0.17218455  0.62263558    -0.18900
C659        C  0.24364706  0.14846491  0.61449607    -0.11200
C660        C  0.28210245  0.16289004  0.61651438     0.21400
C661        C  0.28773354  0.20165452  0.62602015    -0.20500
C662        C  0.25590287  0.22537202  0.63416476    -0.11400
C663        C  0.31688585  0.13819118  0.60991209    -0.15500
C664        C  0.31675685  0.10082230  0.61966524    -0.29400
C665        C  0.18267057  0.23564250  0.63886045    -0.03600
C666        C  0.18281735  0.27304769  0.62928189    -0.40200
H667        H  0.18258285  0.16034882  0.62063838     0.12600
H668        H  0.23786215  0.11901143  0.60604691     0.12200
H669        H  0.31696535  0.21348768  0.62803064     0.11600
H670        H  0.26169850  0.25481840  0.64263411     0.11900
H671        H  0.34402849  0.15167716  0.60088966     0.14600
H672        H  0.29051557  0.08842692  0.63270594     0.13400
H673        H  0.15553219  0.22214775  0.64788202     0.11100
H674        H  0.20904355  0.28546939  0.61623859     0.13100
C675        C  0.78289408  0.21121738  0.62923144     0.19200
C676        C  0.78801137  0.17172357  0.62539803    -0.18900
C677        C  0.75572847  0.14756150  0.62024370    -0.11200
C678        C  0.71751585  0.16245139  0.61964907     0.21400
C679        C  0.71239991  0.20194305  0.62346571    -0.20500
C680        C  0.74467830  0.22610193  0.62862816    -0.11400
C681        C  0.68249998  0.13758004  0.61536863    -0.15500
C682        C  0.68239702  0.10173197  0.63086662    -0.29400
C683        C  0.81789694  0.23610592  0.63361585    -0.03600
C684        C  0.81796026  0.27201107  0.61828653    -0.40200
H685        H  0.81711503  0.15959464  0.62561843     0.12600
H686        H  0.76086711  0.11735354  0.61614598     0.12200
H687        H  0.68329636  0.21407245  0.62326120     0.11600
H688        H  0.73952608  0.25630371  0.63275495     0.11900
H689        H  0.65559224  0.15008935  0.60230951     0.14600
H690        H  0.70849624  0.09093375  0.64771675     0.13400
H691        H  0.84480273  0.22360565  0.64669311     0.11100
H692        H  0.79187443  0.28281120  0.60141257     0.13100
C693        C  0.78251234  0.21098567  0.86764401     0.19200
C694        C  0.78827858  0.17274377  0.87953544    -0.18900
C695        C  0.75642394  0.14904623  0.88766405    -0.11200
C696        C  0.71788592  0.16296034  0.88327619     0.21400
C697        C  0.71212091  0.20120261  0.87138838    -0.20500
C698        C  0.74397465  0.22490007  0.86326378    -0.11400
C699        C  0.68319401  0.13816451  0.88979175    -0.15500
C700        C  0.68381612  0.10060664  0.88103612    -0.29400
C701        C  0.81719546  0.23577955  0.86106335    -0.03600
C702        C  0.81657983  0.27334183  0.86980276    -0.40200
H703        H  0.81759168  0.16135102  0.88339346     0.12600
H704        H  0.76217691  0.12001786  0.89790138     0.12200
H705        H  0.68280808  0.21259414  0.86751833     0.11600
H706        H  0.73822154  0.25392707  0.85302038     0.11900
H707        H  0.65573192  0.15164109  0.89767528     0.14600
H708        H  0.71041731  0.08812392  0.86895644     0.13400
H709        H  0.84463394  0.22230793  0.85307965     0.11100
H710        H  0.79000843  0.28580899  0.88198054     0.13100
C711        C  0.21689267  0.21102961  0.87091858     0.19200
C712        C  0.21207008  0.17154273  0.87530101    -0.18900
C713        C  0.24455601  0.14760314  0.88023723    -0.06400
C714        C  0.28267665  0.16269281  0.88007097     0.21400
C715        C  0.28749668  0.20217972  0.87570199    -0.20500
C716        C  0.25501373  0.22611710  0.87076488    -0.11400
C717        C  0.31786912  0.13800863  0.88418673    -0.15500
C718        C  0.31805494  0.10209635  0.86879212    -0.29400
C719        C  0.18171529  0.23572642  0.86670162    -0.03600
C720        C  0.18154081  0.27166085  0.88202848    -0.40200
H721        H  0.18305057  0.15925483  0.87566887     0.12600
H722        H  0.23966746  0.11740306  0.88475415     0.12200
H723        H  0.31651513  0.21446913  0.87531859     0.11600
H724        H  0.25990730  0.25631438  0.86623062     0.11900
H725        H  0.34477810  0.15066393  0.89708073     0.14600
H726        H  0.29191350  0.09117646  0.85210336     0.13400
H727        H  0.15483063  0.22309549  0.85370747     0.11100
H728        H  0.20764707  0.28255043  0.89881782     0.13100
C729        C  0.22551100  0.65510476  0.61770167     0.19200
C730        C  0.26555276  0.65076139  0.62733414    -0.18900
C731        C  0.28942503  0.68265623  0.63449519    -0.11200
C732        C  0.27381580  0.71976757  0.63135385     0.21400
C733        C  0.23377110  0.72411613  0.62173053    -0.20500
C734        C  0.20989408  0.69221653  0.61457469    -0.11400
C735        C  0.29863814  0.75437732  0.63692038    -0.15500
C736        C  0.33638303  0.75448020  0.62619102    -0.29400
C737        C  0.20072082  0.62047010  0.61214720    -0.03600
C738        C  0.16297272  0.62031426  0.62285767    -0.40200
H739        H  0.27826848  0.62255823  0.63019663     0.12600
H740        H  0.31995239  0.67804590  0.64305946     0.12200
H741        H  0.22105954  0.75232174  0.61887507     0.11600
H742        H  0.17936279  0.69682162  0.60602697     0.11900
H743        H  0.28474747  0.78095741  0.64596121     0.14600
H744        H  0.34890787  0.72863103  0.61301873     0.13400
H745        H  0.21466205  0.59388883  0.60320445     0.11100
H746        H  0.15037738  0.64617011  0.63592798     0.13100
C747        C  0.71734242  0.71156268  0.61949682     0.19200
C748        C  0.71149281  0.67212668  0.62257169    -0.18900
C749        C  0.74323117  0.64749362  0.62890016    -0.11200
C750        C  0.78166643  0.66185167  0.63147088     0.21400
C751        C  0.78750686  0.70128463  0.62839330    -0.20500
C752        C  0.75577857  0.72590921  0.62205602    -0.11400
C753        C  0.81622749  0.63653754  0.63692997    -0.15500
C754        C  0.81613759  0.60058539  0.62178253    -0.29400
C755        C  0.68283289  0.73694312  0.61401122    -0.03600
C756        C  0.68301711  0.77285275  0.62930157    -0.40200
H757        H  0.68220913  0.66040215  0.62087205     0.12600
H758        H  0.73742609  0.61735054  0.63240158     0.12200
H759        H  0.81678677  0.71301936  0.63008433     0.11600
H760        H  0.76159528  0.75604810  0.61852766     0.11900
H761        H  0.84310709  0.64879507  0.65044279     0.14600
H762        H  0.79020543  0.58990098  0.60449049     0.13400
H763        H  0.65597858  0.72481806  0.60026771     0.11100
H764        H  0.70892112  0.78334437  0.64681285     0.13100
C765        C  0.28259304  0.71172225  0.88064724     0.19200
C766        C  0.28842420  0.67226434  0.87779514    -0.18900
C767        C  0.25668701  0.64760324  0.87147257    -0.11200
C768        C  0.21825910  0.66194914  0.86869238     0.21400
C769        C  0.21243599  0.70140412  0.87154030    -0.20500
C770        C  0.24416350  0.72605749  0.87787414    -0.11400
C771        C  0.18368656  0.63660504  0.86327433    -0.15500
C772        C  0.18373142  0.60070075  0.87854777    -0.29400
C773        C  0.31712153  0.73712357  0.88609601    -0.03600
C774        C  0.31698227  0.77300597  0.87074754    -0.40200
H775        H  0.31769799  0.66053749  0.87966067     0.12600
H776        H  0.26249330  0.61744287  0.86814531     0.12200
H777        H  0.18316534  0.71313947  0.86968155     0.11600
H778        H  0.23834232  0.75621260  0.88122999     0.11900
H779        H  0.15683311  0.64882354  0.84968019     0.14600
H780        H  0.20964689  0.59007349  0.89588867     0.13400
H781        H  0.34396552  0.72501013  0.89984556     0.11100
H782        H  0.29107948  0.78348478  0.85325679     0.13100
C783        C  0.77437813  0.65505794  0.88229446     0.19200
C784        C  0.73438072  0.65083052  0.87234170    -0.18900
C785        C  0.71065577  0.68280292  0.86518691    -0.11200
C786        C  0.72637381  0.71986097  0.86865887     0.21400
C787        C  0.76637391  0.72409376  0.87860424    -0.20500
C788        C  0.79010305  0.69211683  0.88575796    -0.11400
C789        C  0.70167611  0.75452031  0.86311993    -0.15500
C790        C  0.66392570  0.75465301  0.87377941    -0.29400
C791        C  0.79904223  0.62037247  0.88781049    -0.03600
C792        C  0.83680624  0.62019631  0.87721263    -0.40200
H793        H  0.72159599  0.62266639  0.86921899     0.12600
H794        H  0.68015719  0.67830303  0.85636981     0.12200
H795        H  0.77915437  0.75226052  0.88171837     0.11600
H796        H  0.82060402  0.69661384  0.89456333     0.11900
H797        H  0.71563296  0.78108167  0.85415513     0.14600
H798        H  0.65135237  0.72882095  0.88691366     0.13400
H799        H  0.78502714  0.59380196  0.89663266     0.11100
H800        H  0.84946618  0.64604355  0.86422321     0.13100
loop_ 
_geom_bond_atom_site_label_1 
_geom_bond_atom_site_label_2 
_geom_bond_distance 
_geom_bond_site_symmetry_2 
_ccdc_geom_bond_type 
O1           C11   1.278       .  A
O1         Cu409   2.016   1_554  S
O2           C12   1.278       .  A
O2           Cu9   2.017       .  S
O3           C13   1.277       .  A
O3           Cu9   1.995       .  S
O4           C14   1.277       .  A
O4         Cu409   1.996   1_554  S
O5           C14   1.277       .  A
O5          Cu10   2.002   1_554  S
O6           C13   1.277       .  A
O6         Cu410   2.002       .  S
O7           C12   1.277       .  A
O7         Cu410   1.999       .  S
O8           C11   1.278       .  A
O8          Cu10   1.999   1_554  S
Cu9         O401   2.016       .  S
Cu9         O404   1.996       .  S
Cu9        Cu410   2.376       .  S
Cu10        O406   2.002       .  S
Cu10        O407   1.999       .  S
Cu10       Cu409   2.376       .  S
C11          C35   1.473       .  S
C12          C26   1.473       .  S
C13          C17   1.470       .  S
C14          C44   1.470       .  S
C15          C16   1.399       .  A
C15          C20   1.410       .  A
C15         C390   1.482       .  S
C16          C17   1.397       .  A
C16          H21   1.085       .  S
C17          C18   1.399       .  A
C18          C19   1.403       .  A
C18          H22   1.084       .  S
C19          C62   1.474       .  S
C19          C20   1.410       .  A
C20          H23   1.083       .  S
C24          C25   1.410       .  A
C24          C29   1.400       .  A
C24         C374   1.482       .  S
C25          C26   1.407       .  A
C25          H30   1.082       .  S
C26          C27   1.403       .  A
C27          C28   1.399       .  A
C27          H31   1.084       .  S
C28          C75   1.471       .  S
C28          C29   1.399       .  A
C29          H32   1.084       .  S
C33          C34   1.410       .  A
C33          C38   1.400       .  A
C33         C356   1.482       .  S
C34          C35   1.407       .  A
C34          H39   1.082       .  S
C35          C36   1.403       .  A
C36          C37   1.399       .  A
C36          H40   1.084       .  S
C37          C64   1.469       .  S
C37          C38   1.398       .  A
C38          H41   1.085       .  S
C42          C43   1.400       .  A
C42          C47   1.411       .  A
C42         C336   1.482       .  S
C43          C44   1.398       .  A
C43          H48   1.085       .  S
C44          C45   1.399       .  A
C45          C46   1.403       .  A
C45          H49   1.084       .  S
C46          C77   1.475       .  S
C46          C47   1.410       .  A
C47          H50   1.083       .  S
O51          C61   1.277       .  A
O51         Cu59   2.010       .  S
O52          C62   1.279       .  A
O52         Cu59   2.006       .  S
O53          C63   1.278       .  A
O53         Cu59   2.012       .  S
O54          C64   1.277       .  A
O54         Cu59   2.005       .  S
O55          C64   1.277       .  A
O55         Cu60   1.994       .  S
O56          C63   1.278       .  A
O56         Cu60   2.003       .  S
O57          C62   1.277       .  A
O57         Cu60   2.014       .  S
O58          C61   1.279       .  A
O58         Cu60   2.010       .  S
Cu59        Cu60   2.375       .  S
C61         C115   1.477   1_565  S
C63         C104   1.476   1_565  S
O65          C75   1.277       .  A
O65         Cu73   1.996       .  S
O66          C76   1.278       .  A
O66         Cu73   2.003       .  S
O67          C77   1.277       .  A
O67         Cu73   2.014       .  S
O68          C78   1.279       .  A
O68         Cu73   2.011       .  S
O69          C78   1.278       .  A
O69         Cu74   2.010       .  S
O70          C77   1.279       .  A
O70         Cu74   2.006       .  S
O71          C76   1.278       .  A
O71         Cu74   2.013       .  S
O72          C75   1.278       .  A
O72         Cu74   2.007       .  S
Cu73        Cu74   2.374       .  S
C76         C122   1.477   1_565  S
C78          C95   1.478   1_565  S
O79          C89   1.280       .  A
O79        Cu487   2.034   1_554  S
O80          C90   1.280       .  A
O80         Cu87   2.033       .  S
O81          C91   1.280       .  A
O81         Cu87   2.029       .  S
O82          C92   1.280       .  A
O82        Cu487   2.028   1_554  S
O83          C92   1.277       .  A
O83        Cu488   2.003   1_554  S
O84          C91   1.277       .  A
O84         Cu88   2.003       .  S
O85          C90   1.278       .  A
O85         Cu88   2.004       .  S
O86          C89   1.278       .  A
O86        Cu488   2.003   1_554  S
Cu87        O479   2.034       .  S
Cu87        O482   2.028       .  S
Cu87        Cu88   2.372       .  S
Cu88        O483   2.003       .  S
Cu88        O486   2.003       .  S
C89         C124   1.482       .  S
C90         C106   1.481       .  S
C91          C97   1.479       .  S
C92         C113   1.479       .  S
C93          C94   1.402       .  A
C93          C98   1.410       .  A
C93         C318   1.485       .  S
C94          C95   1.400       .  A
C94          H99   1.084       .  S
C95          C96   1.403       .  A
C96          C97   1.407       .  A
C96         H100   1.084       .  S
C97          C98   1.407       .  A
C98         H101   1.082       .  S
C102        C103   1.401       .  A
C102        C107   1.412       .  A
C102        C300   1.485       .  S
C103        C104   1.399       .  A
C103        H108   1.085       .  S
C104        C105   1.402       .  A
C105        C106   1.408       .  A
C105        H109   1.084       .  S
C106        C107   1.411       .  A
C107        H110   1.083       .  S
C111        C112   1.410       .  A
C111        C116   1.401       .  A
C111        C282   1.484       .  S
C112        C113   1.407       .  A
C112        H117   1.082       .  S
C113        C114   1.407       .  A
C114        C115   1.404       .  A
C114        H118   1.084       .  S
C115        C116   1.400       .  A
C116        H119   1.084       .  S
C120        C121   1.401       .  A
C120        C125   1.412       .  A
C120        C264   1.485       .  S
C121        C122   1.398       .  A
C121        H126   1.085       .  S
C122        C123   1.402       .  A
C123        C124   1.408       .  A
C123        H127   1.084       .  S
C124        C125   1.412       .  A
C125        H128   1.083       .  S
O129        C139   1.277       .  A
O129       Cu137   1.995       .  S
O130        C140   1.277       .  A
O130       Cu137   1.996   1_455  S
O131        C141   1.278       .  A
O131       Cu137   2.018       .  S
O132        C142   1.278       .  A
O132       Cu137   2.019   1_455  S
O133        C142   1.277       .  A
O133       Cu138   1.998   1_455  S
O134        C141   1.277       .  A
O134       Cu138   1.998       .  S
O135        C140   1.277       .  A
O135       Cu138   2.003   1_455  S
O136        C139   1.277       .  A
O136       Cu138   2.002       .  S
Cu137      Cu138   2.376       .  S
C139        C234   1.470       .  S
C140        C200   1.470       .  S
C141        C241   1.473       .  S
C142        C175   1.474       .  S
O143        C153   1.280       .  A
O143       Cu151   2.029       .  S
O144        C154   1.280       .  A
O144       Cu151   2.030   1_455  S
O145        C155   1.280       .  A
O145       Cu151   2.034       .  S
O146        C156   1.280       .  A
O146       Cu151   2.034   1_455  S
O147        C156   1.278       .  A
O147       Cu152   2.003   1_455  S
O148        C155   1.278       .  A
O148       Cu152   2.003       .  S
O149        C154   1.277       .  A
O149       Cu152   2.003   1_455  S
O150        C153   1.277       .  A
O150       Cu152   2.003       .  S
Cu151      Cu152   2.372       .  S
C153        C250   1.479       .  S
C154        C182   1.480       .  S
C155        C223   1.481       .  S
C156        C193   1.482       .  S
O157        C167   1.278       .  A
O157       Cu565   2.008       .  S
O158        C168   1.278       .  A
O158       Cu165   2.014       .  S
O159        C169   1.279       .  A
O159       Cu165   2.006       .  S
O160        C170   1.278       .  A
O160       Cu565   2.010       .  S
O161        C170   1.279       .  A
O161       Cu566   2.011       .  S
O162        C169   1.277       .  A
O162       Cu166   2.014       .  S
O163        C168   1.278       .  A
O163       Cu166   2.003       .  S
O164        C167   1.277       .  A
O164       Cu566   1.995       .  S
Cu165       O557   2.008   1_554  S
Cu165       O560   2.010   1_554  S
Cu165      Cu166   2.374       .  S
Cu166       O561   2.011   1_554  S
Cu166       O564   1.995   1_554  S
C167        C173   1.471       .  S
C168        C191   1.477       .  S
C169        C202   1.475       .  S
C170        C184   1.478       .  S
C171        C172   1.400       .  A
C171        C176   1.410       .  A
C171        C372   1.483       .  S
C172        C173   1.399       .  A
C172        H177   1.084       .  S
C173        C174   1.399       .  A
C174        C175   1.403       .  A
C174        H178   1.084       .  S
C175        C176   1.407       .  A
C176        H179   1.082       .  S
C180        C181   1.411       .  A
C180        C185   1.402       .  A
C180        C320   1.485       .  S
C181        C182   1.408       .  A
C181        H186   1.082       .  S
C182        C183   1.407       .  A
C183        C184   1.403       .  A
C183        H187   1.084       .  S
C184        C185   1.400       .  A
C185        H188   1.084       .  S
C189        C190   1.401       .  A
C189        C194   1.412       .  A
C189        C266   1.485       .  S
C190        C191   1.398       .  A
C190        H195   1.085       .  S
C191        C192   1.402       .  A
C192        C193   1.408       .  A
C192        H196   1.084       .  S
C193        C194   1.412       .  A
C194        H197   1.083       .  S
C198        C199   1.400       .  A
C198        C203   1.411       .  A
C198        C338   1.482       .  S
C199        C200   1.398       .  A
C199        H204   1.085       .  S
C200        C201   1.399       .  A
C201        C202   1.403       .  A
C201        H205   1.084       .  S
C202        C203   1.410       .  A
C203        H206   1.083       .  S
O207        C217   1.277       .  A
O207       Cu615   2.014       .  S
O208        C218   1.279       .  A
O208       Cu215   2.010   1_554  S
O209        C219   1.277       .  A
O209       Cu215   1.993   1_554  S
O210        C220   1.278       .  A
O210       Cu615   2.002       .  S
O211        C220   1.278       .  A
O211       Cu616   2.013       .  S
O212        C219   1.278       .  A
O212       Cu216   2.007   1_554  S
O213        C218   1.277       .  A
O213       Cu216   2.009   1_554  S
O214        C217   1.279       .  A
O214       Cu616   2.006       .  S
Cu215       O607   2.014       .  S
Cu215       O610   2.002       .  S
Cu215      Cu216   2.374       .  S
Cu216       O611   2.014       .  S
Cu216       O614   2.006       .  S
C217        C232   1.474       .  S
C218        C252   1.477       .  S
C219        C243   1.470       .  S
C220        C225   1.477       .  S
C221        C222   1.412       .  A
C221        C226   1.401       .  A
C221        C302   1.485       .  S
C222        C223   1.411       .  A
C222        H227   1.083       .  S
C223        C224   1.408       .  A
C224        C225   1.402       .  A
C224        H228   1.084       .  S
C225        C226   1.399       .  A
C226        H229   1.085       .  S
C230        C231   1.410       .  A
C230        C235   1.399       .  A
C230        C392   1.482       .  S
C231        C232   1.410       .  A
C231        H236   1.083       .  S
C232        C233   1.403       .  A
C233        C234   1.399       .  A
C233        H237   1.084       .  S
C234        C235   1.398       .  A
C235        H238   1.085       .  S
C239        C240   1.410       .  A
C239        C244   1.400       .  A
C239        C354   1.482       .  S
C240        C241   1.407       .  A
C240        H245   1.082       .  S
C241        C242   1.403       .  A
C242        C243   1.399       .  A
C242        H246   1.084       .  S
C243        C244   1.399       .  A
C244        H247   1.085       .  S
C248        C249   1.410       .  A
C248        C253   1.401       .  A
C248        C284   1.484       .  S
C249        C250   1.407       .  A
C249        H254   1.082       .  S
C250        C251   1.407       .  A
C251        C252   1.404       .  A
C251        H255   1.084       .  S
C252        C253   1.400       .  A
C253        H256   1.084       .  S
C257        C258   1.402       .  A
C257        C262   1.410       .  A
C257        C265   1.492       .  S
C258        C259   1.400       .  A
C258        H267   1.083       .  S
C259        C260   1.410       .  A
C259        H268   1.081       .  S
C260        C261   1.402       .  A
C260        C263   1.492       .  S
C261        C262   1.400       .  A
C261        H269   1.083       .  S
C262        H270   1.081       .  S
C263        H271   1.086       .  S
C263        C264   1.344       .  D
C264        H272   1.085       .  S
C265        H273   1.086       .  S
C265        C266   1.345       .  D
C266        H274   1.085       .  S
C275        C276   1.402       .  A
C275        C280   1.409       .  A
C275        C283   1.485       .  S
C276        C277   1.398       .  A
C276        H285   1.083       .  S
C277        C278   1.408       .  A
C277        H286   1.082       .  S
C278        C279   1.401       .  A
C278        C281   1.485       .  S
C279        C280   1.398       .  A
C279        H287   1.083       .  S
C280        H288   1.082       .  S
C281        H289   1.085       .  S
C281        C282   1.344       .  D
C282        H290   1.086       .  S
C283        H291   1.086       .  S
C283        C284   1.344       .  D
C284        H292   1.086       .  S
C293        C294   1.402       .  A
C293        C298   1.409       .  A
C293        C301   1.490       .  S
C294        C295   1.400       .  A
C294        H303   1.083       .  S
C295        C296   1.409       .  A
C295        H304   1.082       .  S
C296        C297   1.402       .  A
C296        C299   1.490       .  S
C297        C298   1.400       .  A
C297        H305   1.083       .  S
C298        H306   1.082       .  S
C299        H307   1.086       .  S
C299        C300   1.344       .  D
C300        H308   1.086       .  S
C301        H309   1.086       .  S
C301        C302   1.344       .  D
C302        H310   1.086       .  S
C311        C312   1.402       .  A
C311        C316   1.409       .  A
C311        C319   1.486       .  S
C312        C313   1.398       .  A
C312        H321   1.083       .  S
C313        C314   1.408       .  A
C313        H322   1.082       .  S
C314        C315   1.402       .  A
C314        C317   1.486       .  S
C315        C316   1.398       .  A
C315        H323   1.083       .  S
C316        H324   1.082       .  S
C317        H325   1.086       .  S
C317        C318   1.345       .  D
C318        H326   1.086       .  S
C319        H327   1.086       .  S
C319        C320   1.344       .  D
C320        H328   1.086       .  S
C329        C330   1.402       .  A
C329        C334   1.410       .  A
C329        C337   1.489       .  S
C330        C331   1.399       .  A
C330        H339   1.083       .  S
C331        C332   1.409       .  A
C331        H340   1.082       .  S
C332        C333   1.402       .  A
C332        C335   1.488       .  S
C333        C334   1.399       .  A
C333        H341   1.083       .  S
C334        H342   1.082       .  S
C335        H343   1.086       .  S
C335        C336   1.343       .  D
C336        H344   1.086       .  S
C337        H345   1.086       .  S
C337        C338   1.343       .  D
C338        H346   1.086       .  S
C347        C348   1.401       .  A
C347        C352   1.409       .  A
C347        C355   1.485       .  S
C348        C349   1.397       .  A
C348        H357   1.083       .  S
C349        C350   1.409       .  A
C349        H358   1.082       .  S
C350        C351   1.401       .  A
C350        C353   1.485       .  S
C351        C352   1.397       .  A
C351        H359   1.083       .  S
C352        H360   1.082       .  S
C353        H361   1.086       .  S
C353        C354   1.343       .  D
C354        H362   1.086       .  S
C355        H363   1.086       .  S
C355        C356   1.343       .  D
C356        H364   1.086       .  S
C365        C366   1.401       .  A
C365        C370   1.409       .  A
C365        C373   1.485       .  S
C366        C367   1.398       .  A
C366        H375   1.083       .  S
C367        C368   1.409       .  A
C367        H376   1.082       .  S
C368        C369   1.401       .  A
C368        C371   1.485       .  S
C369        C370   1.397       .  A
C369        H377   1.083       .  S
C370        H378   1.082       .  S
C371        H379   1.086       .  S
C371        C372   1.343       .  D
C372        H380   1.086       .  S
C373        H381   1.086       .  S
C373        C374   1.344       .  D
C374        H382   1.086       .  S
C383        C384   1.401       .  A
C383        C388   1.409       .  A
C383        C391   1.488       .  S
C384        C385   1.398       .  A
C384        H393   1.083       .  S
C385        C386   1.409       .  A
C385        H394   1.082       .  S
C386        C387   1.401       .  A
C386        C389   1.488       .  S
C387        C388   1.398       .  A
C387        H395   1.083       .  S
C388        H396   1.082       .  S
C389        H397   1.086       .  S
C389        C390   1.343       .  D
C390        H398   1.086       .  S
C391        H399   1.086       .  S
C391        C392   1.343       .  D
C392        H400   1.086       .  S
O401        C411   1.278       .  A
O402        C412   1.278       .  A
O402       Cu409   2.017       .  S
O403        C413   1.277       .  A
O403       Cu409   1.995       .  S
O404        C414   1.277       .  A
O405        C414   1.277       .  A
O405       Cu410   2.002       .  S
O406        C413   1.277       .  A
O407        C412   1.277       .  A
O408        C411   1.278       .  A
O408       Cu410   1.999       .  S
C411        C435   1.473       .  S
C412        C426   1.473       .  S
C413        C417   1.470       .  S
C414        C444   1.470       .  S
C415        C416   1.399       .  A
C415        C420   1.410       .  A
C415        C790   1.482       .  S
C416        C417   1.397       .  A
C416        H421   1.085       .  S
C417        C418   1.399       .  A
C418        C419   1.403       .  A
C418        H422   1.084       .  S
C419        C462   1.474       .  S
C419        C420   1.410       .  A
C420        H423   1.083       .  S
C424        C425   1.410       .  A
C424        C429   1.400       .  A
C424        C774   1.482       .  S
C425        C426   1.407       .  A
C425        H430   1.082       .  S
C426        C427   1.403       .  A
C427        C428   1.399       .  A
C427        H431   1.084       .  S
C428        C475   1.471       .  S
C428        C429   1.399       .  A
C429        H432   1.084       .  S
C433        C434   1.410       .  A
C433        C438   1.400       .  A
C433        C756   1.482       .  S
C434        C435   1.407       .  A
C434        H439   1.082       .  S
C435        C436   1.403       .  A
C436        C437   1.399       .  A
C436        H440   1.084       .  S
C437        C464   1.469       .  S
C437        C438   1.398       .  A
C438        H441   1.085       .  S
C442        C443   1.400       .  A
C442        C447   1.411       .  A
C442        C736   1.482       .  S
C443        C444   1.398       .  A
C443        H448   1.085       .  S
C444        C445   1.399       .  A
C445        C446   1.403       .  A
C445        H449   1.084       .  S
C446        C477   1.474       .  S
C446        C447   1.410       .  A
C447        H450   1.083       .  S
O451        C461   1.277       .  A
O451       Cu459   2.009       .  S
O452        C462   1.279       .  A
O452       Cu459   2.006       .  S
O453        C463   1.278       .  A
O453       Cu459   2.012       .  S
O454        C464   1.277       .  A
O454       Cu459   2.005       .  S
O455        C464   1.277       .  A
O455       Cu460   1.994       .  S
O456        C463   1.278       .  A
O456       Cu460   2.003       .  S
O457        C462   1.277       .  A
O457       Cu460   2.014       .  S
O458        C461   1.279       .  A
O458       Cu460   2.010       .  S
Cu459      Cu460   2.375       .  S
C461        C515   1.477   1_565  S
C463        C504   1.476   1_565  S
O465        C475   1.277       .  A
O465       Cu473   1.996       .  S
O466        C476   1.278       .  A
O466       Cu473   2.003       .  S
O467        C477   1.277       .  A
O467       Cu473   2.014       .  S
O468        C478   1.279       .  A
O468       Cu473   2.011       .  S
O469        C478   1.278       .  A
O469       Cu474   2.010       .  S
O470        C477   1.279       .  A
O470       Cu474   2.006       .  S
O471        C476   1.278       .  A
O471       Cu474   2.013       .  S
O472        C475   1.278       .  A
O472       Cu474   2.007       .  S
Cu473      Cu474   2.374       .  S
C476        C522   1.477   1_565  S
C478        C495   1.478   1_565  S
O479        C489   1.280       .  A
O480        C490   1.280       .  A
O480       Cu487   2.033       .  S
O481        C491   1.280       .  A
O481       Cu487   2.029       .  S
O482        C492   1.280       .  A
O483        C492   1.277       .  A
O484        C491   1.277       .  A
O484       Cu488   2.003       .  S
O485        C490   1.278       .  A
O485       Cu488   2.004       .  S
O486        C489   1.278       .  A
Cu487      Cu488   2.372       .  S
C489        C524   1.482       .  S
C490        C506   1.481       .  S
C491        C497   1.479       .  S
C492        C513   1.479       .  S
C493        C494   1.402       .  A
C493        C498   1.410       .  A
C493        C718   1.485       .  S
C494        C495   1.400       .  A
C494        H499   1.084       .  S
C495        C496   1.403       .  A
C496        C497   1.407       .  A
C496        H500   1.084       .  S
C497        C498   1.407       .  A
C498        H501   1.082       .  S
C502        C503   1.401       .  A
C502        C507   1.412       .  A
C502        C700   1.485       .  S
C503        C504   1.399       .  A
C503        H508   1.085       .  S
C504        C505   1.402       .  A
C505        C506   1.408       .  A
C505        H509   1.084       .  S
C506        C507   1.411       .  A
C507        H510   1.083       .  S
C511        C512   1.410       .  A
C511        C516   1.401       .  A
C511        C682   1.484       .  S
C512        C513   1.407       .  A
C512        H517   1.082       .  S
C513        C514   1.407       .  A
C514        C515   1.404       .  A
C514        H518   1.084       .  S
C515        C516   1.400       .  A
C516        H519   1.084       .  S
C520        C521   1.401       .  A
C520        C525   1.412       .  A
C520        C664   1.485       .  S
C521        C522   1.398       .  A
C521        H526   1.085       .  S
C522        C523   1.402       .  A
C523        C524   1.408       .  A
C523        H527   1.084       .  S
C524        C525   1.412       .  A
C525        H528   1.083       .  S
O529        C539   1.277       .  A
O529       Cu537   1.995       .  S
O530        C540   1.277       .  A
O530       Cu537   1.996   1_455  S
O531        C541   1.278       .  A
O531       Cu537   2.018       .  S
O532        C542   1.278       .  A
O532       Cu537   2.019   1_455  S
O533        C542   1.277       .  A
O533       Cu538   1.998   1_455  S
O534        C541   1.277       .  A
O534       Cu538   1.998       .  S
O535        C540   1.277       .  A
O535       Cu538   2.003   1_455  S
O536        C539   1.277       .  A
O536       Cu538   2.002       .  S
Cu537      Cu538   2.376       .  S
C539        C634   1.470       .  S
C540        C600   1.471       .  S
C541        C641   1.473       .  S
C542        C575   1.473       .  S
O543        C553   1.280       .  A
O543       Cu551   2.029       .  S
O544        C554   1.280       .  A
O544       Cu551   2.030   1_455  S
O545        C555   1.280       .  A
O545       Cu551   2.034       .  S
O546        C556   1.280       .  A
O546       Cu551   2.034   1_455  S
O547        C556   1.278       .  A
O547       Cu552   2.003   1_455  S
O548        C555   1.278       .  A
O548       Cu552   2.003       .  S
O549        C554   1.277       .  A
O549       Cu552   2.003   1_455  S
O550        C553   1.277       .  A
O550       Cu552   2.003       .  S
Cu551      Cu552   2.372       .  S
C553        C650   1.479       .  S
C554        C582   1.480       .  S
C555        C623   1.481       .  S
C556        C593   1.482       .  S
O557        C567   1.278       .  A
O558        C568   1.278       .  A
O558       Cu565   2.014       .  S
O559        C569   1.279       .  A
O559       Cu565   2.006       .  S
O560        C570   1.278       .  A
O561        C570   1.279       .  A
O562        C569   1.277       .  A
O562       Cu566   2.014       .  S
O563        C568   1.278       .  A
O563       Cu566   2.003       .  S
O564        C567   1.277       .  A
Cu565      Cu566   2.374       .  S
C567        C573   1.471       .  S
C568        C591   1.477       .  S
C569        C602   1.474       .  S
C570        C584   1.478       .  S
C571        C572   1.400       .  A
C571        C576   1.410       .  A
C571        C772   1.483       .  S
C572        C573   1.399       .  A
C572        H577   1.084       .  S
C573        C574   1.399       .  A
C574        C575   1.403       .  A
C574        H578   1.084       .  S
C575        C576   1.407       .  A
C576        H579   1.082       .  S
C580        C581   1.410       .  A
C580        C585   1.402       .  A
C580        C720   1.485       .  S
C581        C582   1.407       .  A
C581        H586   1.082       .  S
C582        C583   1.407       .  A
C583        C584   1.403       .  A
C583        H587   1.084       .  S
C584        C585   1.400       .  A
C585        H588   1.084       .  S
C589        C590   1.401       .  A
C589        C594   1.412       .  A
C589        C666   1.485       .  S
C590        C591   1.398       .  A
C590        H595   1.085       .  S
C591        C592   1.401       .  A
C592        C593   1.408       .  A
C592        H596   1.084       .  S
C593        C594   1.412       .  A
C594        H597   1.083       .  S
C598        C599   1.400       .  A
C598        C603   1.411       .  A
C598        C738   1.482       .  S
C599        C600   1.398       .  A
C599        H604   1.085       .  S
C600        C601   1.399       .  A
C601        C602   1.403       .  A
C601        H605   1.084       .  S
C602        C603   1.410       .  A
C603        H606   1.083       .  S
O607        C617   1.277       .  A
O608        C618   1.279       .  A
O608       Cu615   2.010       .  S
O609        C619   1.277       .  A
O609       Cu615   1.993       .  S
O610        C620   1.278       .  A
O611        C620   1.278       .  A
O612        C619   1.278       .  A
O612       Cu616   2.007       .  S
O613        C618   1.277       .  A
O613       Cu616   2.009       .  S
O614        C617   1.279       .  A
Cu615      Cu616   2.374       .  S
C617        C632   1.474       .  S
C618        C652   1.477       .  S
C619        C643   1.470       .  S
C620        C625   1.477       .  S
C621        C622   1.412       .  A
C621        C626   1.401       .  A
C621        C702   1.485       .  S
C622        C623   1.411       .  A
C622        H627   1.083       .  S
C623        C624   1.408       .  A
C624        C625   1.402       .  A
C624        H628   1.084       .  S
C625        C626   1.399       .  A
C626        H629   1.085       .  S
C630        C631   1.410       .  A
C630        C635   1.399       .  A
C630        C792   1.482       .  S
C631        C632   1.410       .  A
C631        H636   1.083       .  S
C632        C633   1.403       .  A
C633        C634   1.399       .  A
C633        H637   1.084       .  S
C634        C635   1.398       .  A
C635        H638   1.085       .  S
C639        C640   1.410       .  A
C639        C644   1.400       .  A
C639        C754   1.482       .  S
C640        C641   1.407       .  A
C640        H645   1.082       .  S
C641        C642   1.403       .  A
C642        C643   1.399       .  A
C642        H646   1.084       .  S
C643        C644   1.398       .  A
C644        H647   1.085       .  S
C648        C649   1.410       .  A
C648        C653   1.401       .  A
C648        C684   1.484       .  S
C649        C650   1.407       .  A
C649        H654   1.082       .  S
C650        C651   1.407       .  A
C651        C652   1.404       .  A
C651        H655   1.084       .  S
C652        C653   1.400       .  A
C653        H656   1.084       .  S
C657        C658   1.402       .  A
C657        C662   1.410       .  A
C657        C665   1.492       .  S
C658        C659   1.400       .  A
C658        H667   1.083       .  S
C659        C660   1.410       .  A
C659        H668   1.081       .  S
C660        C661   1.402       .  A
C660        C663   1.492       .  S
C661        C662   1.400       .  A
C661        H669   1.083       .  S
C662        H670   1.081       .  S
C663        H671   1.086       .  S
C663        C664   1.344       .  D
C664        H672   1.085       .  S
C665        H673   1.086       .  S
C665        C666   1.345       .  D
C666        H674   1.085       .  S
C675        C676   1.402       .  A
C675        C680   1.408       .  A
C675        C683   1.485       .  S
C676        C677   1.398       .  A
C676        H685   1.083       .  S
C677        C678   1.408       .  A
C677        H686   1.082       .  S
C678        C679   1.401       .  A
C678        C681   1.485       .  S
C679        C680   1.398       .  A
C679        H687   1.083       .  S
C680        H688   1.082       .  S
C681        H689   1.085       .  S
C681        C682   1.344       .  D
C682        H690   1.086       .  S
C683        H691   1.085       .  S
C683        C684   1.344       .  D
C684        H692   1.086       .  S
C693        C694   1.402       .  A
C693        C698   1.409       .  A
C693        C701   1.491       .  S
C694        C695   1.400       .  A
C694        H703   1.083       .  S
C695        C696   1.409       .  A
C695        H704   1.082       .  S
C696        C697   1.402       .  A
C696        C699   1.491       .  S
C697        C698   1.400       .  A
C697        H705   1.083       .  S
C698        H706   1.082       .  S
C699        H707   1.086       .  S
C699        C700   1.344       .  D
C700        H708   1.086       .  S
C701        H709   1.086       .  S
C701        C702   1.344       .  D
C702        H710   1.086       .  S
C711        C712   1.402       .  A
C711        C716   1.409       .  A
C711        C719   1.486       .  S
C712        C713   1.398       .  A
C712        H721   1.083       .  S
C713        C714   1.409       .  A
C713        H722   1.082       .  S
C714        C715   1.402       .  A
C714        C717   1.486       .  S
C715        C716   1.398       .  A
C715        H723   1.083       .  S
C716        H724   1.082       .  S
C717        H725   1.086       .  S
C717        C718   1.345       .  D
C718        H726   1.086       .  S
C719        H727   1.086       .  S
C719        C720   1.345       .  D
C720        H728   1.086       .  S
C729        C730   1.402       .  A
C729        C734   1.409       .  A
C729        C737   1.488       .  S
C730        C731   1.398       .  A
C730        H739   1.083       .  S
C731        C732   1.409       .  A
C731        H740   1.082       .  S
C732        C733   1.402       .  A
C732        C735   1.488       .  S
C733        C734   1.399       .  A
C733        H741   1.083       .  S
C734        H742   1.082       .  S
C735        H743   1.086       .  S
C735        C736   1.343       .  D
C736        H744   1.086       .  S
C737        H745   1.086       .  S
C737        C738   1.343       .  D
C738        H746   1.086       .  S
C747        C748   1.401       .  A
C747        C752   1.409       .  A
C747        C755   1.485       .  S
C748        C749   1.397       .  A
C748        H757   1.083       .  S
C749        C750   1.409       .  A
C749        H758   1.082       .  S
C750        C751   1.401       .  A
C750        C753   1.485       .  S
C751        C752   1.397       .  A
C751        H759   1.083       .  S
C752        H760   1.082       .  S
C753        H761   1.086       .  S
C753        C754   1.343       .  D
C754        H762   1.086       .  S
C755        H763   1.086       .  S
C755        C756   1.343       .  D
C756        H764   1.086       .  S
C765        C766   1.401       .  A
C765        C770   1.409       .  A
C765        C773   1.485       .  S
C766        C767   1.397       .  A
C766        H775   1.083       .  S
C767        C768   1.409       .  A
C767        H776   1.082       .  S
C768        C769   1.401       .  A
C768        C771   1.485       .  S
C769        C770   1.397       .  A
C769        H777   1.083       .  S
C770        H778   1.082       .  S
C771        H779   1.086       .  S
C771        C772   1.344       .  D
C772        H780   1.086       .  S
C773        H781   1.086       .  S
C773        C774   1.344       .  D
C774        H782   1.086       .  S
C783        C784   1.401       .  A
C783        C788   1.409       .  A
C783        C791   1.488       .  S
C784        C785   1.398       .  A
C784        H793   1.083       .  S
C785        C786   1.409       .  A
C785        H794   1.082       .  S
C786        C787   1.401       .  A
C786        C789   1.488       .  S
C787        C788   1.398       .  A
C787        H795   1.083       .  S
C788        H796   1.082       .  S
C789        H797   1.086       .  S
C789        C790   1.343       .  D
C790        H798   1.086       .  S
C791        H799   1.086       .  S
C791        C792   1.343       .  D
C792        H800   1.086       .  S
