geometry optimzed in LAMMPS
_audit_creation_date              2020-11-30 
_audit_creation_method            'lammps2cif' 
_symmetry_space_group_name_H-M    'P1' 
_symmetry_Int_Tables_number       1 
_symmetry_cell_setting            triclinic 
loop_ 
_symmetry_equiv_pos_as_xyz 
  x,y,z 
_cell_length_a                    52.87712468638491 
_cell_length_b                    53.02592186556675 
_cell_length_c                    38.16194273251091 
_cell_angle_alpha                 89.97619702886037 
_cell_angle_beta                  90.09512316193548 
_cell_angle_gamma                 120.19354451344388 
loop_ 
_atom_site_label 
_atom_site_type_symbol 
_atom_site_fract_x 
_atom_site_fract_y 
_atom_site_fract_z 
_atom_site_charge 
O1          O  0.28314545  0.28452575  0.32314886    -0.83580
C2          C  0.34751396  0.23189623  0.29211352     0.95780
O3          O  0.33097783  0.23954185  0.27788937    -0.72690
O4          O  0.29426497  0.25823164  0.26646309    -0.76290
Al5        Al  0.32943799  0.27188685  0.29470400     1.48980
C6          C  0.26776005  0.23858648  0.27144420     0.91030
O7          O  0.26182123  0.20881711  0.36552905    -0.82510
O8          O  0.30806873  0.24210294  0.40470199    -0.76060
Al9        Al  0.27581784  0.24753380  0.34297926     1.90120
O10         O  0.29824933  0.20120469  0.35411401    -0.75130
O11         O  0.35777086  0.27790628  0.37115785    -0.74980
O12         O  0.35071919  0.23362450  0.32529793    -0.80640
O13         O  0.36884800  0.28917419  0.31576380    -0.78850
O14         O  0.31073722  0.25296156  0.33286787    -1.14980
O15         O  0.32942305  0.30591739  0.30738898    -0.74180
C16         C  0.30648166  0.30691574  0.31265572     0.96540
C17         C  0.27332197  0.19261042  0.36698775     0.92940
Al18       Al  0.32762314  0.23981834  0.36174775     1.55560
O19         O  0.25899573  0.22748920  0.30125747    -0.78800
C20         C  0.37667499  0.29083129  0.34773861     0.97110
C21         C  0.29403830  0.25535154  0.41032569     0.91990
O22         O  0.28940836  0.26794818  0.38548482    -0.84120
O23         O  0.19527257  0.18449392  0.06695564    -0.83580
C24         C  0.13146316  0.23778353  0.04282007     0.95780
O25         O  0.14640138  0.22882384  0.02727859    -0.72690
O26         O  0.18214828  0.20869195  0.01358350    -0.76290
Al27       Al  0.14775594  0.19639384  0.04392819     1.48980
C28         C  0.20847079  0.22953234  0.01704290     0.91030
O29         O  0.21879987  0.25982376  0.11231462    -0.82510
O30         O  0.17405316  0.22621934  0.15297270    -0.76060
Al31       Al  0.20353198  0.22159228  0.08806796     1.90120
O32         O  0.18261621  0.26811758  0.10322146    -0.75130
O33         O  0.12360397  0.19174586  0.12136227    -0.74980
O34         O  0.12938468  0.23638470  0.07619620    -0.80640
O35         O  0.10880919  0.18030867  0.06716351    -0.78850
O36         O  0.16833581  0.21601274  0.08093884    -1.14980
O37         O  0.14772966  0.16246578  0.05724219    -0.74180
C38         C  0.17103091  0.16163808  0.05967657     0.96540
C39         C  0.20788621  0.27643961  0.11483357     0.92940
Al40       Al  0.15325069  0.22954343  0.11136166     1.55560
O41         O  0.21750183  0.24237849  0.04597344    -0.78800
C42         C  0.10302258  0.17991420  0.09972883     0.97110
C43         C  0.18834652  0.21288371  0.15617348     0.91990
O44         O  0.19199531  0.20084873  0.12998818    -0.84120
O45         O  0.19020222  0.47772006  0.98827000    -0.83580
C46         C  0.23710905  0.09398082  0.45851113     0.95780
O47         O  0.22662061  0.06961572  0.44359544    -0.72690
O48         O  0.21048400  0.01421708  0.43344292    -0.76290
Al49       Al  0.19749384  0.03529042  0.46425375     1.48980
C50         C  0.23173353  0.00926980  0.43583677     0.91030
O51         O  0.26706696  0.03423943  0.02892924    -0.82510
O52         O  0.23462721  0.04562560  0.06997287    -0.76060
Al53       Al  0.22752269  0.00875234  0.00730574     1.90120
O54         O  0.27300240  0.07690965  0.01561833    -0.75130
O55         O  0.19792184  0.05950926  0.04129971    -0.74980
O56         O  0.23901003  0.09586159  0.49177832    -0.80640
O57         O  0.18100684  0.05682771  0.48822903    -0.78850
O58         O  0.22014798  0.03728073  0.99942961    -1.14980
O59         O  0.16572470  0.50076263  0.48139622    -0.74180
C60         C  0.16643876  0.47746020  0.48194805     0.96540
C61         C  0.28270046  0.06208236  0.02970848     0.92940
Al62       Al  0.23500731  0.06742935  0.02768353     1.55560
O63         O  0.24596742  0.51419071  0.46400083    -0.78800
C64         C  0.18256643  0.06431678  0.02027068     0.97110
C65         C  0.22135013  0.01825011  0.07565878     0.91990
O66         O  0.20874903  0.50066161  0.05098270    -0.84120
O67         O  0.28574753  0.48856599  0.23477758    -0.83580
C68         C  0.23616453  0.37192286  0.20877226     0.95780
O69         O  0.24531982  0.39613754  0.19395819    -0.72690
O70         O  0.26441364  0.45170476  0.18087687    -0.76290
Al71       Al  0.27644887  0.43015954  0.21230906     1.48980
C72         C  0.24303579  0.45638184  0.18297307     0.91030
O73         O  0.20928756  0.43441583  0.27631932    -0.82510
O74         O  0.24184188  0.42383135  0.31912204    -0.76060
Al75       Al  0.24819805  0.45853885  0.25416415     1.90120
O76         O  0.20201287  0.39048599  0.26683513    -0.75130
O77         O  0.27804205  0.40901452  0.29032409    -0.74980
O78         O  0.23588924  0.37051288  0.24222847    -0.80640
O79         O  0.29258246  0.40819345  0.23692599    -0.78850
O80         O  0.25503604  0.42973134  0.24795100    -1.14980
O81         O  0.30940300  0.46463715  0.22722477    -0.74180
C82         C  0.30928060  0.48828851  0.22847812     0.96540
C83         C  0.19302030  0.40677740  0.27845655     0.92940
Al84       Al  0.24057599  0.40042361  0.27761040     1.55560
O85         O  0.22883321  0.45143053  0.21100680    -0.78800
C86         C  0.29199675  0.40227668  0.26948370     0.97110
C87         C  0.25449436  0.45145825  0.32282669     0.91990
O88         O  0.26729722  0.46782658  0.29731536    -0.84120
O89         O  0.48221508  0.27647220  0.40401502    -0.83580
C90         C  0.09907090  0.34302966  0.37599227     0.95780
O91         O  0.07461710  0.32747162  0.36166192    -0.72690
O92         O  0.01925561  0.29030963  0.35002364    -0.76290
Al93       Al  0.04076326  0.32500358  0.37967998     1.48980
C94         C  0.01400882  0.26423639  0.35394531     0.91030
O95         O  0.03746652  0.25650119  0.44799152    -0.82510
O96         O  0.04854510  0.30099092  0.48823478    -0.76060
Al97       Al  0.01253973  0.27012088  0.42482949     1.90120
O98         O  0.08127962  0.29329668  0.43686428    -0.75130
O99         O  0.06299968  0.35136982  0.45653321    -0.74980
O100        O  0.10086735  0.34587797  0.40931345    -0.80640
O101        O  0.06298181  0.36391828  0.40185434    -0.78850
O102        O  0.04161970  0.30553634  0.41649232    -1.14980
O103        O  0.50642659  0.32384490  0.39468618    -0.74180
C104        C  0.48267500  0.30004454  0.39621859     0.96540
C105        C  0.06528862  0.26818663  0.44931383     0.92940
Al106      Al  0.07138312  0.32193772  0.44576304     1.55560
O107        O  0.01795771  0.25547669  0.38294792    -0.78800
C108        C  0.06919583  0.37090176  0.43402382     0.97110
C109        C  0.02088805  0.28602979  0.49231953     0.91990
O110        O  0.00433813  0.28228305  0.46694778    -0.84120
O111        O  0.99397554  0.19061866  0.15208002    -0.83580
C112        C  0.37623726  0.12444212  0.12897454     0.95780
O113        O  0.39993768  0.13917767  0.11290209    -0.72690
O114        O  0.45541822  0.17645132  0.09896957    -0.76290
Al115      Al  0.43450931  0.14213999  0.12955352     1.48980
C116        C  0.46161950  0.20291934  0.10269035     0.91030
O117        O  0.44164671  0.21283140  0.19750726    -0.82510
O118        O  0.43091352  0.16891459  0.23834208    -0.76060
Al119      Al  0.46489587  0.19798164  0.17348732     1.90120
O120        O  0.39700787  0.17659622  0.18826943    -0.75130
O121        O  0.41510861  0.11845091  0.20754695    -0.74980
O122        O  0.37579361  0.12323588  0.16236118    -0.80640
O123        O  0.41263250  0.10356871  0.15354473    -0.78850
O124        O  0.43525432  0.16272120  0.16633889    -1.14980
O125        O  0.46939093  0.14332832  0.14223587    -0.74180
C126        C  0.99331527  0.16700590  0.14407432     0.96540
C127        C  0.41399178  0.20194568  0.19951612     0.92940
Al128      Al  0.40661282  0.14763580  0.19698230     1.55560
O129        O  0.45817561  0.21191944  0.13178198    -0.78800
C130        C  0.40702955  0.09788825  0.18611992     0.97110
C131        C  0.45868685  0.18299022  0.24143744     0.91990
O132        O  0.47418975  0.18629689  0.21516899    -0.84120
C133        C  0.47261925  0.21808042  0.33108553    -0.15130
C134        C  0.00045626  0.24274429  0.32591132     0.07020
C135        C  0.01521952  0.24610396  0.29455528    -0.15130
C136        C  0.00217470  0.22517298  0.26832511    -0.15130
C137        C  0.47367512  0.20095584  0.27254656     0.07020
C138        C  0.45905054  0.19750472  0.30430808    -0.15130
H139        H  0.46106901  0.21527682  0.35549671     0.11010
H140        H  0.03679602  0.26485255  0.29041488     0.11010
H141        H  0.01400394  0.22881264  0.24397492     0.11010
H142        H  0.43702988  0.17942728  0.30806400     0.11010
C143        C  0.50655659  0.27538660  0.05583091    -0.15130
C144        C  0.00745596  0.26593547  0.02197148     0.07020
C145        C  0.99244520  0.23581265  0.01458929    -0.15130
C146        C  0.47718532  0.21533752  0.04054803    -0.15130
C147        C  0.47590870  0.22452176  0.07441181     0.07020
C148        C  0.49067333  0.25477315  0.08189032    -0.15130
H149        H  0.51751721  0.29846357  0.06187302     0.11010
H150        H  0.99243007  0.22790992  0.48847954     0.11010
H151        H  0.46633894  0.19233702  0.03407043     0.11010
H152        H  0.49036572  0.26250598  0.10804809     0.11010
C153        C  0.14472046  0.36423144  0.29378594    -0.15130
C154        C  0.16669151  0.39298306  0.30091946     0.07020
C155        C  0.16697712  0.40505058  0.33390245    -0.15130
C156        C  0.14606560  0.38837224  0.35948542    -0.15130
C157        C  0.12424077  0.35952501  0.35222234     0.07020
C158        C  0.12363928  0.34785538  0.31892610    -0.15130
H159        H  0.14440999  0.35410163  0.26902151     0.11010
H160        H  0.18420856  0.42683846  0.34053680     0.11010
H161        H  0.14666173  0.39812894  0.38460629     0.11010
H162        H  0.10677908  0.32582482  0.31234168     0.11010
C163        C  0.34549673  0.04027856  0.23995242    -0.15130
C164        C  0.33632514  0.01534773  0.21963086     0.07020
C165        C  0.35249360  0.01663443  0.18968231    -0.15130
C166        C  0.37667089  0.04315557  0.17905823    -0.15130
C167        C  0.38559219  0.06838443  0.19911591     0.07020
C168        C  0.37018946  0.06632839  0.23025374    -0.15130
H169        H  0.33337329  0.03966386  0.26311087     0.11010
H170        H  0.34549436  0.49742281  0.17357279     0.11010
H171        H  0.38773848  0.04413295  0.15482340     0.11010
H172        H  0.37609757  0.08536502  0.24627092     0.11010
C173        C  0.20279273  0.48226501  0.12459192    -0.15130
C174        C  0.22619291  0.50611762  0.10785718     0.07020
C175        C  0.25485693  0.01281497  0.11543757    -0.15130
C176        C  0.26020328  0.49540915  0.13819367    -0.15130
C177        C  0.23688121  0.47154873  0.15490560     0.07020
C178        C  0.20815639  0.46559307  0.14873461    -0.15130
H179        H  0.18045027  0.47614786  0.11827905     0.11010
H180        H  0.27307126  0.03066415  0.10223861     0.11010
H181        H  0.28258628  0.50103137  0.14343265     0.11010
H182        H  0.18987295  0.44768077  0.16208562     0.11010
C183        C  0.25089623  0.47741837  0.41425480    -0.15130
C184        C  0.23839138  0.49498394  0.40701506     0.07020
C185        C  0.23080308  0.49717927  0.37256677    -0.15130
C186        C  0.23626435  0.48276695  0.34574759    -0.15130
C187        C  0.24857936  0.46511373  0.35285383     0.07020
C188        C  0.25560920  0.46222744  0.38734942    -0.15130
H189        H  0.25650166  0.97498486  0.44085397     0.11010
H190        H  0.22090834  0.51023648  0.36633298     0.11010
H191        H  0.23050661  0.48518472  0.31922036     0.11010
H192        H  0.26516957  0.44883144  0.39331236     0.11010
C193        C  0.31604279  0.10634789  0.06454096    -0.15130
C194        C  0.30834469  0.07788989  0.05357875     0.07020
C195        C  0.32234677  0.06434287  0.06963603    -0.15130
C196        C  0.34314333  0.07883261  0.09628404    -0.15130
C197        C  0.35007895  0.10693189  0.10739700     0.07020
C198        C  0.33662913  0.12063423  0.09099173    -0.15130
H199        H  0.30567245  0.11758835  0.05315710     0.11010
H200        H  0.31685985  0.04248903  0.06205752     0.11010
H201        H  0.35436728  0.06843075  0.10768468     0.11010
H202        H  0.34257450  0.14272386  0.09811713     0.11010
C203        C  0.13617875  0.44505913  0.43394300    -0.15130
C204        C  0.14028449  0.45089011  0.47001549     0.07020
C205        C  0.11813698  0.43302226  0.49340268    -0.15130
C206        C  0.09297774  0.40827903  0.48101186    -0.15130
C207        C  0.08953722  0.40125892  0.44501199     0.07020
C208        C  0.11092837  0.42049914  0.42147335    -0.15130
H209        H  0.15285542  0.45925492  0.41548203     0.11010
H210        H  0.12063140  0.43781847  0.02119004     0.11010
H211        H  0.07695201  0.39369065  0.49981024     0.11010
H212        H  0.10918119  0.41546643  0.39377041     0.11010
C213        C  0.04767291  0.15302952  0.09567197    -0.15130
C214        C  0.07377796  0.17274018  0.11261493     0.07020
C215        C  0.07268434  0.18917186  0.14108101    -0.15130
C216        C  0.04649481  0.18693250  0.15153366    -0.15130
C217        C  0.02048910  0.16746394  0.13466062     0.07020
C218        C  0.02103341  0.14998216  0.10714325    -0.15130
H219        H  0.04794388  0.14045641  0.07348390     0.11010
H220        H  0.09242440  0.20501550  0.15446713     0.11010
H221        H  0.04660194  0.20066068  0.17262815     0.11010
H222        H  0.50104605  0.13498792  0.09351239     0.11010
C223        C  0.06767787  0.24140622  0.50250602    -0.15130
C224        C  0.08007015  0.25609362  0.47085842     0.07020
C225        C  0.10964980  0.26551627  0.46422223    -0.15130
C226        C  0.12649867  0.26071138  0.48855104    -0.15130
C227        C  0.11444661  0.24673832  0.02051601     0.07020
C228        C  0.08477527  0.23687391  0.02723760    -0.15130
H229        H  0.04519290  0.23454870  0.50878625     0.11010
H230        H  0.12002795  0.27739835  0.44046403     0.11010
H231        H  0.14912711  0.26792768  0.48234358     0.11010
H232        H  0.07470618  0.22513686  0.05117856     0.11010
C233        C  0.21768457  0.32643466  0.12643060    -0.15130
C234        C  0.22108534  0.30297374  0.13681335     0.07020
C235        C  0.22898710  0.30177302  0.17180604    -0.15130
C236        C  0.23273470  0.32341541  0.19607759    -0.15130
C237        C  0.22876976  0.34662697  0.18559239     0.07020
C238        C  0.22165538  0.34800611  0.15034167    -0.15130
H239        H  0.21072646  0.32741779  0.09999804     0.11010
H240        H  0.23067952  0.28330025  0.18081245     0.11010
H241        H  0.23894592  0.32216175  0.22279429     0.11010
H242        H  0.21882883  0.36578441  0.14121147     0.11010
C243        C  0.17914508  0.12089993  0.07569210    -0.15130
C244        C  0.16995793  0.13417560  0.05125697     0.07020
C245        C  0.15988936  0.12123596  0.01820621    -0.15130
C246        C  0.16129789  0.09647545  0.00864609    -0.15130
C247        C  0.17209300  0.08397430  0.03245275     0.07020
C248        C  0.17963036  0.09567864  0.06664763    -0.15130
H249        H  0.18647519  0.13036677  0.10147073     0.11010
H250        H  0.15247841  0.13126667  0.99915216     0.11010
H251        H  0.15570257  0.08828737  0.48210194     0.11010
H252        H  0.18804930  0.08664824  0.08576516     0.11010
C253        C  0.35677708  0.21748745  0.23340728    -0.15130
C254        C  0.36507810  0.22425884  0.26876888     0.07020
C255        C  0.39178308  0.22712323  0.27977464    -0.15130
C256        C  0.40958521  0.22300576  0.25590035    -0.15130
C257        C  0.40068400  0.21536666  0.22086633     0.07020
C258        C  0.37416776  0.21275360  0.20990911    -0.15130
H259        H  0.33649097  0.21541324  0.22392875     0.11010
H260        H  0.39895397  0.23267378  0.30668392     0.11010
H261        H  0.42945419  0.22410633  0.26527976     0.11010
H262        H  0.36639408  0.20597551  0.18337872     0.11010
C263        C  0.41638722  0.30904577  0.39243515    -0.15130
C264        C  0.40729663  0.30104283  0.35747274     0.07020
C265        C  0.42417420  0.29424780  0.33529174    -0.15130
C266        C  0.44829568  0.29323307  0.34850846    -0.15130
C267        C  0.45630919  0.29969457  0.38382216     0.07020
C268        C  0.44101293  0.30875407  0.40540403    -0.15130
H269        H  0.40347161  0.31393881  0.41019815     0.11010
H270        H  0.41741511  0.28751889  0.30848693     0.11010
H271        H  0.46053192  0.28703001  0.33128218     0.11010
H272        H  0.44756901  0.31468869  0.43243403     0.11010
C273        C  0.27213380  0.27245201  0.45578102    -0.15130
C274        C  0.27666744  0.25034507  0.44243201     0.07020
C275        C  0.25819952  0.22148455  0.45351336    -0.15130
C276        C  0.23493045  0.21460974  0.47626032    -0.15130
C277        C  0.23025222  0.23662858  0.48926039     0.07020
C278        C  0.24957271  0.26573516  0.47977368    -0.15130
H279        H  0.28554573  0.29474940  0.44687342     0.11010
H280        H  0.26060726  0.20394843  0.44293535     0.11010
H281        H  0.22085986  0.19213006  0.48421842     0.11010
H282        H  0.24677508  0.28312560  0.49036206     0.11010
C283        C  0.21790724  0.22469336  0.24912340    -0.15130
C284        C  0.24635637  0.22972679  0.24278678     0.07020
C285        C  0.25461777  0.22775306  0.20868367    -0.15130
C286        C  0.23483429  0.22079178  0.18127283    -0.15130
C287        C  0.20663908  0.21660440  0.18713440     0.07020
C288        C  0.19830603  0.21874472  0.22129048    -0.15130
H289        H  0.21129374  0.22649110  0.27541021     0.11010
H290        H  0.27641567  0.23168051  0.20323591     0.11010
H291        H  0.24214084  0.21986323  0.15506284     0.11010
H292        H  0.17691888  0.21600448  0.22633963     0.11010
C293        C  0.28066438  0.16863850  0.41827028    -0.15130
C294        C  0.26210880  0.16741738  0.39092705     0.07020
C295        C  0.23465872  0.14235984  0.38696082    -0.15130
C296        C  0.22651211  0.11843646  0.40930480    -0.15130
C297        C  0.24527325  0.11978104  0.43651611     0.07020
C298        C  0.27209581  0.14530337  0.44129968    -0.15130
H299        H  0.30195970  0.18789887  0.42191968     0.11010
H300        H  0.22010034  0.14095849  0.36610321     0.11010
H301        H  0.20554519  0.09880378  0.40538630     0.11010
H302        H  0.28683532  0.14676622  0.46197669     0.11010
C303        C  0.29239861  0.34412397  0.32549413    -0.15130
C304        C  0.30663481  0.33398076  0.30393596     0.07020
C305        C  0.31982035  0.34901182  0.27270241    -0.15130
C306        C  0.31693261  0.37273090  0.26195595    -0.15130
C307        C  0.30168905  0.38229553  0.28297650     0.07020
C308        C  0.29048493  0.36837525  0.31551577    -0.15130
H309        H  0.28229525  0.33295944  0.34972160     0.11010
H310        H  0.33089395  0.34133492  0.25565259     0.11010
H311        H  0.32544257  0.38269286  0.23670594     0.11010
H312        H  0.27838285  0.37493534  0.33243205     0.11490
O313        O  0.28314545  0.28452575  0.82314885    -0.83580
C314        C  0.34751395  0.23189622  0.79211352     0.95780
O315        O  0.33097782  0.23954184  0.77788937    -0.72690
O316        O  0.29426497  0.25823163  0.76646308    -0.76290
Al317      Al  0.32943799  0.27188685  0.79470399     1.48980
C318        C  0.26776005  0.23858648  0.77144420     0.91030
O319        O  0.26182123  0.20881711  0.86552904    -0.82510
O320        O  0.30806873  0.24210294  0.90470198    -0.76060
Al321      Al  0.27581784  0.24753380  0.84297925     1.90120
O322        O  0.29824933  0.20120469  0.85411401    -0.75130
O323        O  0.35777085  0.27790628  0.87115784    -0.74980
O324        O  0.35071918  0.23362449  0.82529793    -0.80640
O325        O  0.36884800  0.28917419  0.81576379    -0.78850
O326        O  0.31073722  0.25296156  0.83286786    -1.14980
O327        O  0.32942305  0.30591739  0.80738897    -0.74180
C328        C  0.30648166  0.30691574  0.81265571     0.96540
C329        C  0.27332196  0.19261042  0.86698775     0.92940
Al330      Al  0.32762313  0.23981834  0.86174775     1.55560
O331        O  0.25899572  0.22748920  0.80125747    -0.78800
C332        C  0.37667499  0.29083128  0.84773860     0.97110
C333        C  0.29403830  0.25535155  0.91032569     0.91990
O334        O  0.28940836  0.26794819  0.88548481    -0.84120
O335        O  0.19527256  0.18449390  0.56695564    -0.83580
C336        C  0.13146316  0.23778352  0.54282005     0.95780
O337        O  0.14640137  0.22882382  0.52727857    -0.72690
O338        O  0.18214827  0.20869193  0.51358349    -0.76290
Al339      Al  0.14775593  0.19639383  0.54392818     1.48980
C340        C  0.20847078  0.22953231  0.51704289     0.91030
O341        O  0.21879987  0.25982374  0.61231461    -0.82510
O342        O  0.17405316  0.22621933  0.65297269    -0.76060
Al343      Al  0.20353197  0.22159226  0.58806796     1.90120
O344        O  0.18261621  0.26811757  0.60322144    -0.75130
O345        O  0.12360396  0.19174585  0.62136225    -0.74980
O346        O  0.12938468  0.23638470  0.57619618    -0.80640
O347        O  0.10880918  0.18030866  0.56716350    -0.78850
O348        O  0.16833580  0.21601272  0.58093883    -1.14980
O349        O  0.14772964  0.16246576  0.55724218    -0.74180
C350        C  0.17103089  0.16163805  0.55967657     0.96540
C351        C  0.20788621  0.27643960  0.61483355     0.92940
Al352      Al  0.15325069  0.22954342  0.61136165     1.55560
O353        O  0.21750182  0.24237847  0.54597343    -0.78800
C354        C  0.10302257  0.17991420  0.59972882     0.97110
C355        C  0.18834651  0.21288370  0.65617347     0.91990
O356        O  0.19199530  0.20084871  0.62998817    -0.84120
O357        O  0.19020221  0.47772007  0.48827002    -0.83580
C358        C  0.23710905  0.09398082  0.95851113     0.95780
O359        O  0.22662061  0.06961572  0.94359545    -0.72690
O360        O  0.21048400  0.01421708  0.93344292    -0.76290
Al361      Al  0.19749384  0.03529042  0.96425375     1.48980
C362        C  0.23173353  0.00926980  0.93583677     0.91030
O363        O  0.26706697  0.03423943  0.52892924    -0.82510
O364        O  0.23462721  0.04562560  0.56997287    -0.76060
Al365      Al  0.22752270  0.00875234  0.50730574     1.90120
O366        O  0.27300241  0.07690965  0.51561833    -0.75130
O367        O  0.19792184  0.05950925  0.54129971    -0.74980
O368        O  0.23901003  0.09586159  0.99177832    -0.80640
O369        O  0.18100684  0.05682771  0.98822904    -0.78850
O370        O  0.22014798  0.03728072  0.49942960    -1.14980
O371        O  0.16572470  0.50076261  0.98139626    -0.74180
C372        C  0.16643877  0.47746018  0.98194806     0.96540
C373        C  0.28270046  0.06208236  0.52970848     0.92940
Al374      Al  0.23500731  0.06742935  0.52768353     1.55560
O375        O  0.24596742  0.51419071  0.96400079    -0.78800
C376        C  0.18256643  0.06431677  0.52027067     0.97110
C377        C  0.22135013  0.01825011  0.57565878     0.91990
O378        O  0.20874900  0.50066161  0.55098271    -0.84120
O379        O  0.28574750  0.48856597  0.73477755    -0.83580
C380        C  0.23616454  0.37192286  0.70877223     0.95780
O381        O  0.24531983  0.39613753  0.69395816    -0.72690
O382        O  0.26441364  0.45170476  0.68087684    -0.76290
Al383      Al  0.27644886  0.43015953  0.71230904     1.48980
C384        C  0.24303578  0.45638182  0.68297304     0.91030
O385        O  0.20928753  0.43441579  0.77631928    -0.82510
O386        O  0.24184186  0.42383133  0.81912201    -0.76060
Al387      Al  0.24819802  0.45853882  0.75416411     1.90120
O388        O  0.20201286  0.39048596  0.76683509    -0.75130
O389        O  0.27804204  0.40901452  0.79032407    -0.74980
O390        O  0.23588925  0.37051287  0.74222843    -0.80640
O391        O  0.29258246  0.40819345  0.73692597    -0.78850
O392        O  0.25503603  0.42973133  0.74795097    -1.14980
O393        O  0.30940299  0.46463715  0.72722476    -0.74180
C394        C  0.30928058  0.48828850  0.72847810     0.96540
C395        C  0.19302028  0.40677736  0.77845651     0.92940
Al396      Al  0.24057598  0.40042359  0.77761037     1.55560
O397        O  0.22883319  0.45143049  0.71100676    -0.78800
C398        C  0.29199675  0.40227668  0.76948368     0.97110
C399        C  0.25449433  0.45145823  0.82282666     0.91990
O400        O  0.26729718  0.46782656  0.79731533    -0.84120
O401        O  0.48221508  0.27647221  0.90401501    -0.83580
C402        C  0.09907092  0.34302963  0.87599226     0.95780
O403        O  0.07461712  0.32747159  0.86166191    -0.72690
O404        O  0.01925563  0.29030961  0.85002363    -0.76290
Al405      Al  0.04076327  0.32500356  0.87967995     1.48980
C406        C  0.01400883  0.26423637  0.85394531     0.91030
O407        O  0.03746651  0.25650120  0.94799154    -0.82510
O408        O  0.04854509  0.30099094  0.98823478    -0.76060
Al409      Al  0.01253973  0.27012088  0.92482950     1.90120
O410        O  0.08127962  0.29329668  0.93686431    -0.75130
O411        O  0.06299968  0.35136984  0.95653317    -0.74980
O412        O  0.10086736  0.34587796  0.90931345    -0.80640
O413        O  0.06298183  0.36391827  0.90185429    -0.78850
O414        O  0.04161971  0.30553634  0.91649231    -1.14980
O415        O  0.50642660  0.32384490  0.89468615    -0.74180
C416        C  0.48267501  0.30004455  0.89621857     0.96540
C417        C  0.06528861  0.26818663  0.94931386     0.92940
Al418      Al  0.07138312  0.32193773  0.94576304     1.55560
O419        O  0.01795771  0.25547668  0.88294794    -0.78800
C420        C  0.06919584  0.37090177  0.93402376     0.97110
C421        C  0.02088805  0.28602981  0.99231952     0.91990
O422        O  0.00433813  0.28228307  0.96694776    -0.84120
O423        O  0.99397553  0.19061864  0.65208002    -0.83580
C424        C  0.37623726  0.12444211  0.62897455     0.95780
O425        O  0.39993768  0.13917766  0.61290209    -0.72690
O426        O  0.45541822  0.17645131  0.59896957    -0.76290
Al427      Al  0.43450931  0.14213999  0.62955353     1.48980
C428        C  0.46161949  0.20291934  0.60269035     0.91030
O429        O  0.44164670  0.21283139  0.69750726    -0.82510
O430        O  0.43091352  0.16891459  0.73834209    -0.76060
Al431      Al  0.46489587  0.19798163  0.67348732     1.90120
O432        O  0.39700786  0.17659621  0.68826944    -0.75130
O433        O  0.41510862  0.11845091  0.70754695    -0.74980
O434        O  0.37579361  0.12323587  0.66236119    -0.80640
O435        O  0.41263250  0.10356870  0.65354474    -0.78850
O436        O  0.43525432  0.16272120  0.66633889    -1.14980
O437        O  0.46939093  0.14332831  0.64223588    -0.74180
C438        C  0.99331526  0.16700589  0.64407432     0.96540
C439        C  0.41399178  0.20194567  0.69951612     0.92940
Al440      Al  0.40661282  0.14763580  0.69698230     1.55560
O441        O  0.45817561  0.21191944  0.63178198    -0.78800
C442        C  0.40702955  0.09788824  0.68611992     0.97110
C443        C  0.45868685  0.18299021  0.74143744     0.91990
O444        O  0.47418975  0.18629689  0.71516899    -0.84120
C445        C  0.47261925  0.21808042  0.83108553    -0.15130
C446        C  0.00045627  0.24274426  0.82591133     0.07020
C447        C  0.01521954  0.24610392  0.79455530    -0.15130
C448        C  0.00217471  0.22517294  0.76832513    -0.15130
C449        C  0.47367512  0.20095583  0.77254656     0.07020
C450        C  0.45905054  0.19750471  0.80430809    -0.15130
H451        H  0.46106901  0.21527681  0.85549671     0.11010
H452        H  0.03679604  0.26485251  0.79041490     0.11010
H453        H  0.01400396  0.22881260  0.74397494     0.11010
H454        H  0.43702988  0.17942727  0.80806400     0.11010
C455        C  0.50655657  0.27538659  0.55583090    -0.15130
C456        C  0.00745598  0.26593545  0.52197149     0.07020
C457        C  0.99244524  0.23581263  0.51458931    -0.15130
C458        C  0.47718534  0.21533751  0.54054804    -0.15130
C459        C  0.47590870  0.22452175  0.57441181     0.07020
C460        C  0.49067332  0.25477314  0.58189032    -0.15130
H461        H  0.51751719  0.29846356  0.56187302     0.11010
H462        H  0.99243001  0.22790994  0.98847952     0.11010
H463        H  0.46633897  0.19233701  0.53407044     0.11010
H464        H  0.49036569  0.26250598  0.60804808     0.11010
C465        C  0.14472047  0.36423138  0.79378594    -0.15130
C466        C  0.16669150  0.39298301  0.80091943     0.07020
C467        C  0.16697712  0.40505054  0.83390242    -0.15130
C468        C  0.14606560  0.38837221  0.85948540    -0.15130
C469        C  0.12424078  0.35952497  0.85222233     0.07020
C470        C  0.12363930  0.34785532  0.81892611    -0.15130
H471        H  0.14441000  0.35410156  0.76902152     0.11010
H472        H  0.18420854  0.42683844  0.84053675     0.11010
H473        H  0.14666174  0.39812892  0.88460626     0.11010
H474        H  0.10677910  0.32582475  0.81234170     0.11010
C475        C  0.34549673  0.04027856  0.73995243    -0.15130
C476        C  0.33632514  0.01534773  0.71963087     0.07020
C477        C  0.35249360  0.01663443  0.68968232    -0.15130
C478        C  0.37667090  0.04315557  0.67905824    -0.15130
C479        C  0.38559219  0.06838442  0.69911591     0.07020
C480        C  0.37018946  0.06632839  0.73025374    -0.15130
H481        H  0.33337329  0.03966386  0.76311087     0.11010
H482        H  0.34549436  0.49742280  0.67357280     0.11010
H483        H  0.38773849  0.04413295  0.65482341     0.11010
H484        H  0.37609757  0.08536502  0.74627092     0.11010
C485        C  0.20279270  0.48226494  0.62459185    -0.15130
C486        C  0.22619287  0.50611762  0.60785719     0.07020
C487        C  0.25485694  0.01281497  0.61543758    -0.15130
C488        C  0.26020327  0.49540921  0.63819374    -0.15130
C489        C  0.23688120  0.47154872  0.65490558     0.07020
C490        C  0.20815637  0.46559299  0.64873451    -0.15130
H491        H  0.18045023  0.47614773  0.61827893     0.11010
H492        H  0.27307126  0.03066416  0.60223863     0.11010
H493        H  0.28258627  0.50103148  0.64343278     0.11010
H494        H  0.18987293  0.44768064  0.66208546     0.11010
C495        C  0.25089618  0.47741833  0.91425477    -0.15130
C496        C  0.23839136  0.49498392  0.90701503     0.07020
C497        C  0.23080306  0.49717925  0.87256675    -0.15130
C498        C  0.23626433  0.48276693  0.84574756    -0.15130
C499        C  0.24857932  0.46511371  0.85285381     0.07020
C500        C  0.25560914  0.46222740  0.88734939    -0.15130
H501        H  0.25650165  0.97498486  0.94085398     0.11010
H502        H  0.22090833  0.51023648  0.86633296     0.11010
H503        H  0.23050659  0.48518472  0.81922033     0.11010
H504        H  0.26516950  0.44883139  0.89331233     0.11010
C505        C  0.31604280  0.10634788  0.56454096    -0.15130
C506        C  0.30834470  0.07788989  0.55357875     0.07020
C507        C  0.32234677  0.06434286  0.56963603    -0.15130
C508        C  0.34314333  0.07883260  0.59628405    -0.15130
C509        C  0.35007895  0.10693189  0.60739700     0.07020
C510        C  0.33662913  0.12063422  0.59099174    -0.15130
H511        H  0.30567246  0.11758835  0.55315710     0.11010
H512        H  0.31685985  0.04248902  0.56205752     0.11010
H513        H  0.35436728  0.06843074  0.60768468     0.11010
H514        H  0.34257451  0.14272385  0.59811713     0.11010
C515        C  0.13617883  0.44505908  0.93394298    -0.15130
C516        C  0.14028451  0.45089009  0.97001547     0.07020
C517        C  0.11813693  0.43302229  0.99340262    -0.15130
C518        C  0.09297769  0.40827908  0.98101177    -0.15130
C519        C  0.08953723  0.40125893  0.94501192     0.07020
C520        C  0.11092845  0.42049911  0.92147331    -0.15130
H521        H  0.15285555  0.45925483  0.91548205     0.11010
H522        H  0.12063151  0.43781840  0.52119010     0.11010
H523        H  0.07695191  0.39369073  0.99981013     0.11010
H524        H  0.10918131  0.41546637  0.89377038     0.11010
C525        C  0.04767290  0.15302950  0.59567198    -0.15130
C526        C  0.07377795  0.17274018  0.61261492     0.07020
C527        C  0.07268434  0.18917186  0.64108099    -0.15130
C528        C  0.04649480  0.18693251  0.65153364    -0.15130
C529        C  0.02048909  0.16746393  0.63466062     0.07020
C530        C  0.02103340  0.14998214  0.60714326    -0.15130
H531        H  0.04794387  0.14045639  0.57348392     0.11010
H532        H  0.09242439  0.20501552  0.65446710     0.11010
H533        H  0.04660194  0.20066070  0.67262812     0.11010
H534        H  0.50104605  0.13498791  0.59351240     0.11010
C535        C  0.06767787  0.24140625  0.00250607    -0.15130
C536        C  0.08007014  0.25609362  0.97085845     0.07020
C537        C  0.10964978  0.26551624  0.96422223    -0.15130
C538        C  0.12649865  0.26071135  0.98855104    -0.15130
C539        C  0.11444661  0.24673832  0.52051599     0.07020
C540        C  0.08477526  0.23687389  0.52723756    -0.15130
H541        H  0.04519291  0.23454876  0.00878631     0.11010
H542        H  0.12002792  0.27739830  0.94046401     0.11010
H543        H  0.14912708  0.26792764  0.98234356     0.11010
H544        H  0.07470617  0.22513680  0.55117850     0.11010
C545        C  0.21768459  0.32643465  0.62643057    -0.15130
C546        C  0.22108534  0.30297372  0.63681333     0.07020
C547        C  0.22898711  0.30177301  0.67180602    -0.15130
C548        C  0.23273471  0.32341540  0.69607756    -0.15130
C549        C  0.22876977  0.34662696  0.68559236     0.07020
C550        C  0.22165540  0.34800610  0.65034163    -0.15130
H551        H  0.21072648  0.32741778  0.59999801     0.11010
H552        H  0.23067952  0.28330024  0.68081243     0.11010
H553        H  0.23894592  0.32216174  0.72279427     0.11010
H554        H  0.21882885  0.36578440  0.64121143     0.11010
C555        C  0.17914506  0.12089990  0.57569210    -0.15130
C556        C  0.16995790  0.13417557  0.55125697     0.07020
C557        C  0.15988934  0.12123593  0.51820621    -0.15130
C558        C  0.16129787  0.09647543  0.50864609    -0.15130
C559        C  0.17209299  0.08397428  0.53245275     0.07020
C560        C  0.17963035  0.09567862  0.56664763    -0.15130
H561        H  0.18647517  0.13036675  0.60147073     0.11010
H562        H  0.15247839  0.13126664  0.49915216     0.11010
H563        H  0.15570258  0.08828740  0.98210194     0.11010
H564        H  0.18804930  0.08664823  0.58576515     0.11010
C565        C  0.35677708  0.21748744  0.73340727    -0.15130
C566        C  0.36507810  0.22425884  0.76876888     0.07020
C567        C  0.39178307  0.22712322  0.77977464    -0.15130
C568        C  0.40958521  0.22300575  0.75590035    -0.15130
C569        C  0.40068399  0.21536665  0.72086633     0.07020
C570        C  0.37416776  0.21275359  0.70990910    -0.15130
H571        H  0.33649097  0.21541324  0.72392874     0.11010
H572        H  0.39895396  0.23267377  0.80668393     0.11010
H573        H  0.42945418  0.22410631  0.76527976     0.11010
H574        H  0.36639408  0.20597550  0.68337872     0.11010
C575        C  0.41638722  0.30904577  0.89243513    -0.15130
C576        C  0.40729663  0.30104283  0.85747272     0.07020
C577        C  0.42417420  0.29424780  0.83529173    -0.15130
C578        C  0.44829568  0.29323307  0.84850844    -0.15130
C579        C  0.45630919  0.29969458  0.88382214     0.07020
C580        C  0.44101293  0.30875408  0.90540401    -0.15130
H581        H  0.40347161  0.31393881  0.91019814     0.11010
H582        H  0.41741510  0.28751889  0.80848692     0.11010
H583        H  0.46053192  0.28703002  0.83128216     0.11010
H584        H  0.44756902  0.31468869  0.93243401     0.11010
C585        C  0.27213380  0.27245203  0.95578101    -0.15130
C586        C  0.27666744  0.25034508  0.94243201     0.07020
C587        C  0.25819953  0.22148457  0.95351336    -0.15130
C588        C  0.23493046  0.21460976  0.97626034    -0.15130
C589        C  0.23025223  0.23662860  0.98926040     0.07020
C590        C  0.24957272  0.26573518  0.97977368    -0.15130
H591        H  0.28554574  0.29474942  0.94687341     0.11010
H592        H  0.26060726  0.20394844  0.94293536     0.11010
H593        H  0.22085987  0.19213008  0.98421844     0.11010
H594        H  0.24677509  0.28312562  0.99036206     0.11010
C595        C  0.21790723  0.22469336  0.74912339    -0.15130
C596        C  0.24635636  0.22972678  0.74278677     0.07020
C597        C  0.25461776  0.22775304  0.70868366    -0.15130
C598        C  0.23483428  0.22079176  0.68127283    -0.15130
C599        C  0.20663907  0.21660439  0.68713439     0.07020
C600        C  0.19830602  0.21874472  0.72129047    -0.15130
H601        H  0.21129374  0.22649111  0.77541020     0.11010
H602        H  0.27641565  0.23168049  0.70323591     0.11010
H603        H  0.24214083  0.21986320  0.65506283     0.11010
H604        H  0.17691888  0.21600449  0.72633962     0.11010
C605        C  0.28066437  0.16863851  0.91827028    -0.15130
C606        C  0.26210880  0.16741739  0.89092705     0.07020
C607        C  0.23465871  0.14235984  0.88696083    -0.15130
C608        C  0.22651210  0.11843646  0.90930480    -0.15130
C609        C  0.24527325  0.11978104  0.93651611     0.07020
C610        C  0.27209580  0.14530338  0.94129968    -0.15130
H611        H  0.30195970  0.18789887  0.92191968     0.11010
H612        H  0.22010033  0.14095849  0.86610322     0.11010
H613        H  0.20554518  0.09880378  0.90538631     0.11010
H614        H  0.28683532  0.14676623  0.96197668     0.11010
C615        C  0.29239861  0.34412398  0.82549411    -0.15130
C616        C  0.30663481  0.33398076  0.80393595     0.07020
C617        C  0.31982035  0.34901182  0.77270240    -0.15130
C618        C  0.31693261  0.37273090  0.76195594    -0.15130
C619        C  0.30168906  0.38229554  0.78297649     0.07020
C620        C  0.29048493  0.36837526  0.81551576    -0.15130
H621        H  0.28229526  0.33295945  0.84972159     0.11010
H622        H  0.33089395  0.34133492  0.75565258     0.11010
H623        H  0.32544257  0.38269285  0.73670592     0.11010
H624        H  0.27838286  0.37493535  0.83243204     0.11490
O625        O  0.28314544  0.78452575  0.32314886    -0.83580
C626        C  0.34751395  0.73189622  0.29211353     0.95780
O627        O  0.33097782  0.73954184  0.27788939    -0.72690
O628        O  0.29426496  0.75823163  0.26646310    -0.76290
Al629      Al  0.32943798  0.77188685  0.29470401     1.48980
C630        C  0.26776004  0.73858648  0.27144421     0.91030
O631        O  0.26182122  0.70881711  0.36552905    -0.82510
O632        O  0.30806872  0.74210294  0.40470199    -0.76060
Al633      Al  0.27581784  0.74753380  0.34297926     1.90120
O634        O  0.29824932  0.70120469  0.35411402    -0.75130
O635        O  0.35777084  0.77790628  0.37115786    -0.74980
O636        O  0.35071918  0.73362449  0.32529794    -0.80640
O637        O  0.36884800  0.78917419  0.31576381    -0.78850
O638        O  0.31073721  0.75296156  0.33286787    -1.14980
O639        O  0.32942305  0.80591739  0.30738899    -0.74180
C640        C  0.30648165  0.80691574  0.31265572     0.96540
C641        C  0.27332196  0.69261042  0.36698776     0.92940
Al642      Al  0.32762313  0.73981834  0.36174776     1.55560
O643        O  0.25899572  0.72748920  0.30125748    -0.78800
C644        C  0.37667498  0.79083129  0.34773862     0.97110
C645        C  0.29403829  0.75535154  0.41032570     0.91990
O646        O  0.28940835  0.76794819  0.38548483    -0.84120
O647        O  0.19527257  0.68449391  0.06695566    -0.83580
C648        C  0.13146315  0.73778352  0.04282007     0.95780
O649        O  0.14640137  0.72882382  0.02727859    -0.72690
O650        O  0.18214827  0.70869193  0.01358351    -0.76290
Al651      Al  0.14775593  0.69639383  0.04392820     1.48980
C652        C  0.20847078  0.72953232  0.01704291     0.91030
O653        O  0.21879985  0.75982375  0.11231464    -0.82510
O654        O  0.17405315  0.72621933  0.15297271    -0.76060
Al655      Al  0.20353197  0.72159227  0.08806798     1.90120
O656        O  0.18261619  0.76811757  0.10322147    -0.75130
O657        O  0.12360396  0.69174584  0.12136227    -0.74980
O658        O  0.12938467  0.73638469  0.07619620    -0.80640
O659        O  0.10880918  0.68030865  0.06716352    -0.78850
O660        O  0.16833579  0.71601272  0.08093885    -1.14980
O661        O  0.14772965  0.66246576  0.05724220    -0.74180
C662        C  0.17103090  0.66163806  0.05967659     0.96540
C663        C  0.20788619  0.77643960  0.11483359     0.92940
Al664      Al  0.15325067  0.72954341  0.11136167     1.55560
O665        O  0.21750182  0.74237848  0.04597346    -0.78800
C666        C  0.10302256  0.67991419  0.09972884     0.97110
C667        C  0.18834650  0.71288370  0.15617349     0.91990
O668        O  0.19199529  0.70084871  0.12998819    -0.84120
O669        O  0.19020221  0.97772007  0.98827002    -0.83580
C670        C  0.23710904  0.59398081  0.45851113     0.95780
O671        O  0.22662059  0.56961571  0.44359545    -0.72690
O672        O  0.21048398  0.51421707  0.43344292    -0.76290
Al673      Al  0.19749383  0.53529042  0.46425376     1.48980
C674        C  0.23173351  0.50926979  0.43583676     0.91030
O675        O  0.26706699  0.53423943  0.02892920    -0.82510
O676        O  0.23462724  0.54562559  0.06997285    -0.76060
Al677      Al  0.22752272  0.50875234  0.00730572     1.90120
O678        O  0.27300242  0.57690965  0.01561829    -0.75130
O679        O  0.19792187  0.55950925  0.04129973    -0.74980
O680        O  0.23901004  0.59586159  0.49177831    -0.80640
O681        O  0.18100684  0.55682771  0.48822905    -0.78850
O682        O  0.22014799  0.53728072  0.99942960    -1.14980
O683        O  0.16572471  0.00076264  0.48139620    -0.74180
C684        C  0.16643877  0.97746020  0.48194804     0.96540
C685        C  0.28270048  0.56208236  0.02970844     0.92940
Al686      Al  0.23500733  0.56742934  0.02768352     1.55560
O687        O  0.24596743  0.01419070  0.46400084    -0.78800
C688        C  0.18256644  0.56431677  0.02027071     0.97110
C689        C  0.22135017  0.51825011  0.07565876     0.91990
O690        O  0.20874899  0.00066162  0.05098272    -0.84120
O691        O  0.28574752  0.98856599  0.23477756    -0.83580
C692        C  0.23616450  0.87192286  0.20877227     0.95780
O693        O  0.24531978  0.89613753  0.19395819    -0.72690
O694        O  0.26441361  0.95170475  0.18087686    -0.76290
Al695      Al  0.27644884  0.93015953  0.21230904     1.48980
C696        C  0.24303577  0.95638184  0.18297307     0.91030
O697        O  0.20928756  0.93441585  0.27631934    -0.82510
O698        O  0.24184190  0.92383137  0.31912204    -0.76060
Al699      Al  0.24819805  0.95853886  0.25416415     1.90120
O700        O  0.20201287  0.89048600  0.26683516    -0.75130
O701        O  0.27804205  0.90901453  0.29032407    -0.74980
O702        O  0.23588922  0.87051288  0.24222847    -0.80640
O703        O  0.29258244  0.90819345  0.23692596    -0.78850
O704        O  0.25503604  0.92973135  0.24795100    -1.14980
O705        O  0.30940299  0.96463714  0.22722472    -0.74180
C706        C  0.30928060  0.98828850  0.22847808     0.96540
C707        C  0.19302030  0.90677742  0.27845658     0.92940
Al708      Al  0.24057599  0.90042362  0.27761040     1.55560
O709        O  0.22883320  0.95143054  0.21100681    -0.78800
C710        C  0.29199675  0.90227668  0.26948367     0.97110
C711        C  0.25449439  0.95145827  0.32282669     0.91990
O712        O  0.26729724  0.96782659  0.29731535    -0.84120
O713        O  0.48221506  0.77647219  0.40401506    -0.83580
C714        C  0.09907089  0.84302968  0.37599227     0.95780
O715        O  0.07461708  0.82747164  0.36166192    -0.72690
O716        O  0.01925559  0.79030964  0.35002367    -0.76290
Al717      Al  0.04076324  0.82500358  0.37968001     1.48980
C718        C  0.01400881  0.76423640  0.35394532     0.91030
O719        O  0.03746653  0.75650119  0.44799151    -0.82510
O720        O  0.04854511  0.80099091  0.48823478    -0.76060
Al721      Al  0.01253973  0.77012087  0.42482951     1.90120
O722        O  0.08127962  0.79329667  0.43686427    -0.75130
O723        O  0.06299967  0.85136981  0.45653324    -0.74980
O724        O  0.10086734  0.84587798  0.40931345    -0.80640
O725        O  0.06298178  0.86391828  0.40185439    -0.78850
O726        O  0.04161970  0.80553634  0.41649233    -1.14980
O727        O  0.50642656  0.82384489  0.39468628    -0.74180
C728        C  0.48267497  0.80004453  0.39621866     0.96540
C729        C  0.06528863  0.76818663  0.44931382     0.92940
Al730      Al  0.07138312  0.82193771  0.44576305     1.55560
O731        O  0.01795771  0.75547670  0.38294793    -0.78800
C732        C  0.06919582  0.87090176  0.43402386     0.97110
C733        C  0.02088806  0.78602978  0.49231954     0.91990
O734        O  0.00433814  0.78228303  0.46694780    -0.84120
O735        O  0.99397553  0.69061864  0.15208006    -0.83580
C736        C  0.37623726  0.62444212  0.12897453     0.95780
O737        O  0.39993769  0.63917766  0.11290209    -0.72690
O738        O  0.45541824  0.67645131  0.09896960    -0.76290
Al739      Al  0.43450931  0.64213999  0.12955355     1.48980
C740        C  0.46161951  0.70291934  0.10269037     0.91030
O741        O  0.44164670  0.71283140  0.19750727    -0.82510
O742        O  0.43091350  0.66891461  0.23834210    -0.76060
Al743      Al  0.46489587  0.69798164  0.17348734     1.90120
O744        O  0.39700786  0.67659623  0.18826942    -0.75130
O745        O  0.41510859  0.61845092  0.20754698    -0.74980
O746        O  0.37579361  0.62323588  0.16236118    -0.80640
O747        O  0.41263250  0.60356871  0.15354477    -0.78850
O748        O  0.43525431  0.66272121  0.16633891    -1.14980
O749        O  0.46939093  0.64332831  0.14223592    -0.74180
C750        C  0.99331526  0.66700588  0.14407436     0.96540
C751        C  0.41399178  0.70194569  0.19951611     0.92940
Al752      Al  0.40661280  0.64763581  0.19698230     1.55560
O753        O  0.45817562  0.71191944  0.13178200    -0.78800
C754        C  0.40702954  0.59788825  0.18611995     0.97110
C755        C  0.45868683  0.68299023  0.24143746     0.91990
O756        O  0.47418973  0.68629689  0.21516902    -0.84120
C757        C  0.47261922  0.71808045  0.33108554    -0.15130
C758        C  0.00045624  0.74274430  0.32591133     0.07020
C759        C  0.01521950  0.74610397  0.29455529    -0.15130
C760        C  0.00217467  0.72517299  0.26832512    -0.15130
C761        C  0.47367509  0.70095586  0.27254658     0.07020
C762        C  0.45905051  0.69750475  0.30430810    -0.15130
H763        H  0.46106898  0.71527685  0.35549672     0.11010
H764        H  0.03679599  0.76485256  0.29041489     0.11010
H765        H  0.01400391  0.72881264  0.24397493     0.11010
H766        H  0.43702986  0.67942730  0.30806402     0.11010
C767        C  0.50655659  0.77538659  0.05583092    -0.15130
C768        C  0.00745600  0.76593544  0.02197151     0.07020
C769        C  0.99244526  0.73581262  0.01458934    -0.15130
C770        C  0.47718537  0.71533751  0.04054807    -0.15130
C771        C  0.47590872  0.72452175  0.07441183     0.07020
C772        C  0.49067333  0.75477314  0.08189033    -0.15130
H773        H  0.51751719  0.79846356  0.06187303     0.11010
H774        H  0.99243011  0.72790991  0.48847957     0.11010
H775        H  0.46633901  0.69233701  0.03407047     0.11010
H776        H  0.49036569  0.76250598  0.10804810     0.11010
C777        C  0.14472044  0.86423148  0.29378594    -0.15130
C778        C  0.16669151  0.89298309  0.30091948     0.07020
C779        C  0.16697713  0.90505060  0.33390248    -0.15130
C780        C  0.14606559  0.88837225  0.35948544    -0.15130
C781        C  0.12424075  0.85952504  0.35222234     0.07020
C782        C  0.12363926  0.84785541  0.31892608    -0.15130
H783        H  0.14440996  0.85410168  0.26902150     0.11010
H784        H  0.18420858  0.92683847  0.34053685     0.11010
H785        H  0.14666173  0.89812894  0.38460632     0.11010
H786        H  0.10677904  0.82582486  0.31234165     0.11010
C787        C  0.34549671  0.54027857  0.23995245    -0.15130
C788        C  0.33632515  0.51534774  0.21963090     0.07020
C789        C  0.35249362  0.51663443  0.18968237    -0.15130
C790        C  0.37667091  0.54315558  0.17905829    -0.15130
C791        C  0.38559218  0.56838444  0.19911595     0.07020
C792        C  0.37018944  0.56632841  0.23025376    -0.15130
H793        H  0.33337325  0.53966387  0.26311088     0.11010
H794        H  0.34549431  0.99742281  0.17357270     0.11010
H795        H  0.38773852  0.54413295  0.15482348     0.11010
H796        H  0.37609752  0.58536504  0.24627092     0.11010
C797        C  0.20279269  0.98226499  0.12459192    -0.15130
C798        C  0.22619286  0.00611763  0.10785720     0.07020
C799        C  0.25485697  0.51281494  0.11543753    -0.15130
C800        C  0.26020325  0.99540917  0.13819371    -0.15130
C801        C  0.23688118  0.97154873  0.15490561     0.07020
C802        C  0.20815636  0.96559305  0.14873460    -0.15130
H803        H  0.18045023  0.97614782  0.11827903     0.11010
H804        H  0.27307130  0.53066411  0.10223855     0.11010
H805        H  0.28258625  0.00103141  0.14343270     0.11010
H806        H  0.18987292  0.94768073  0.16208559     0.11010
C807        C  0.25089628  0.97741841  0.41425479    -0.15130
C808        C  0.23839141  0.99498396  0.40701506     0.07020
C809        C  0.23080310  0.99717928  0.37256678    -0.15130
C810        C  0.23626437  0.98276696  0.34574759    -0.15130
C811        C  0.24857939  0.96511376  0.35285383     0.07020
C812        C  0.25560925  0.96222748  0.38734941    -0.15130
H813        H  0.25650159  0.47498481  0.44085398     0.11010
H814        H  0.22090834  0.01023647  0.36633299     0.11010
H815        H  0.23050661  0.98518472  0.31922036     0.11010
H816        H  0.26516963  0.94883149  0.39331235     0.11010
C817        C  0.31604281  0.60634789  0.06454092    -0.15130
C818        C  0.30834472  0.57788989  0.05357871     0.07020
C819        C  0.32234680  0.56434288  0.06963600    -0.15130
C820        C  0.34314335  0.57883262  0.09628402    -0.15130
C821        C  0.35007896  0.60693189  0.10739698     0.07020
C822        C  0.33662914  0.62063423  0.09099171    -0.15130
H823        H  0.30567247  0.61758835  0.05315706     0.11010
H824        H  0.31685988  0.54248904  0.06205748     0.11010
H825        H  0.35436730  0.56843075  0.10768465     0.11010
H826        H  0.34257451  0.64272385  0.09811711     0.11010
C827        C  0.13617870  0.94505916  0.43394300    -0.15130
C828        C  0.14028450  0.95089011  0.47001550     0.07020
C829        C  0.11813703  0.93302223  0.49340272    -0.15130
C830        C  0.09297778  0.90827900  0.48101191    -0.15130
C831        C  0.08953721  0.90125891  0.44501204     0.07020
C832        C  0.11092832  0.92049916  0.42147338    -0.15130
H833        H  0.15285534  0.95925496  0.41548202     0.11010
H834        H  0.12063158  0.93781835  0.02119014     0.11010
H835        H  0.07695208  0.89369060  0.49981031     0.11010
H836        H  0.10918110  0.91546646  0.39377043     0.11010
C837        C  0.04767290  0.65302948  0.09567202    -0.15130
C838        C  0.07377795  0.67274018  0.11261494     0.07020
C839        C  0.07268434  0.68917188  0.14108099    -0.15130
C840        C  0.04649481  0.68693252  0.15153366    -0.15130
C841        C  0.02048909  0.66746393  0.13466065     0.07020
C842        C  0.02103339  0.64998212  0.10714331    -0.15130
H843        H  0.04794385  0.64045635  0.07348397     0.11010
H844        H  0.09242440  0.70501554  0.15446708     0.11010
H845        H  0.04660195  0.70066073  0.17262812     0.11010
H846        H  0.50104604  0.63498788  0.09351247     0.11010
C847        C  0.06767786  0.74140621  0.50250600    -0.15130
C848        C  0.08007016  0.75609363  0.47085842     0.07020
C849        C  0.10964982  0.76551630  0.46422225    -0.15130
C850        C  0.12649868  0.76071141  0.48855107    -0.15130
C851        C  0.11444661  0.74673832  0.02051601     0.07020
C852        C  0.08477525  0.73687386  0.02723755    -0.15130
H853        H  0.04519289  0.73454867  0.50878621     0.11010
H854        H  0.12002798  0.77739839  0.44046406     0.11010
H855        H  0.14912713  0.76792773  0.48234363     0.11010
H856        H  0.07470615  0.72513677  0.05117848     0.11010
C857        C  0.21768454  0.82643465  0.12643061    -0.15130
C858        C  0.22108531  0.80297372  0.13681337     0.07020
C859        C  0.22898708  0.80177301  0.17180606    -0.15130
C860        C  0.23273468  0.82341540  0.19607760    -0.15130
C861        C  0.22876972  0.84662696  0.18559241     0.07020
C862        C  0.22165535  0.84800609  0.15034168    -0.15130
H863        H  0.21072642  0.82741777  0.09999806     0.11010
H864        H  0.23067951  0.78330025  0.18081246     0.11010
H865        H  0.23894590  0.82216175  0.22279430     0.11010
H866        H  0.21882878  0.86578438  0.14121148     0.11010
C867        C  0.17914513  0.62089995  0.07569212    -0.15130
C868        C  0.16995792  0.63417558  0.05125700     0.07020
C869        C  0.15988932  0.62123591  0.01820626    -0.15130
C870        C  0.16129785  0.59647540  0.00864615    -0.15130
C871        C  0.17209302  0.58397429  0.03245280     0.07020
C872        C  0.17963043  0.59567867  0.06664765    -0.15130
H873        H  0.18647528  0.63036682  0.10147073     0.11010
H874        H  0.15247832  0.63126659  0.99915223     0.11010
H875        H  0.15570256  0.58828738  0.48210197     0.11010
H876        H  0.18804941  0.58664830  0.08576516     0.11010
C877        C  0.35677707  0.71748745  0.23340728    -0.15130
C878        C  0.36507809  0.72425884  0.26876889     0.07020
C879        C  0.39178307  0.72712322  0.27977465    -0.15130
C880        C  0.40958520  0.72300575  0.25590035    -0.15130
C881        C  0.40068399  0.71536666  0.22086633     0.07020
C882        C  0.37416776  0.71275361  0.20990911    -0.15130
H883        H  0.33649097  0.71541326  0.22392876     0.11010
H884        H  0.39895395  0.73267376  0.30668394     0.11010
H885        H  0.42945417  0.72410632  0.26527976     0.11010
H886        H  0.36639408  0.70597553  0.18337873     0.11010
C887        C  0.41638721  0.80904579  0.39243516    -0.15130
C888        C  0.40729662  0.80104282  0.35747276     0.07020
C889        C  0.42417417  0.79424776  0.33529179    -0.15130
C890        C  0.44829565  0.79323302  0.34850853    -0.15130
C891        C  0.45630916  0.79969455  0.38382222     0.07020
C892        C  0.44101291  0.80875409  0.40540406    -0.15130
H893        H  0.40347161  0.81393885  0.41019815     0.11010
H894        H  0.41741508  0.78751883  0.30848698     0.11010
H895        H  0.46053188  0.78702993  0.33128227     0.11010
H896        H  0.44756900  0.81468873  0.43243406     0.11010
C897        C  0.27213380  0.77245202  0.45578104    -0.15130
C898        C  0.27666743  0.75034508  0.44243202     0.07020
C899        C  0.25819950  0.72148456  0.45351336    -0.15130
C900        C  0.23493044  0.71460976  0.47626033    -0.15130
C901        C  0.23025222  0.73662860  0.48926042     0.07020
C902        C  0.24957272  0.76573518  0.47977371    -0.15130
H903        H  0.28554574  0.79474942  0.44687344     0.11010
H904        H  0.26060723  0.70394844  0.44293534     0.11010
H905        H  0.22085984  0.69213007  0.48421843     0.11010
H906        H  0.24677510  0.78312562  0.49036209     0.11010
C907        C  0.21790724  0.72469338  0.24912340    -0.15130
C908        C  0.24635636  0.72972679  0.24278678     0.07020
C909        C  0.25461775  0.72775303  0.20868368    -0.15130
C910        C  0.23483427  0.72079174  0.18127285    -0.15130
C911        C  0.20663906  0.71660439  0.18713441     0.07020
C912        C  0.19830602  0.71874474  0.22129049    -0.15130
H913        H  0.21129375  0.72649114  0.27541021     0.11010
H914        H  0.27641564  0.73168047  0.20323593     0.11010
H915        H  0.24214081  0.71986318  0.15506285     0.11010
H916        H  0.17691888  0.71600452  0.22633964     0.11010
C917        C  0.28066436  0.66863851  0.41827030    -0.15130
C918        C  0.26210879  0.66741738  0.39092705     0.07020
C919        C  0.23465872  0.64235982  0.38696080    -0.15130
C920        C  0.22651211  0.61843645  0.40930477    -0.15130
C921        C  0.24527325  0.61978103  0.43651611     0.07020
C922        C  0.27209578  0.64530338  0.44129970    -0.15130
H923        H  0.30195967  0.68789888  0.42191972     0.11010
H924        H  0.22010035  0.64095847  0.36610318     0.11010
H925        H  0.20554520  0.59880376  0.40538626     0.11010
H926        H  0.28683529  0.64676624  0.46197672     0.11010
C927        C  0.29239861  0.84412399  0.32549411    -0.15130
C928        C  0.30663480  0.83398076  0.30393595     0.07020
C929        C  0.31982032  0.84901180  0.27270238    -0.15130
C930        C  0.31693258  0.87273088  0.26195591    -0.15130
C931        C  0.30168904  0.88229553  0.28297647     0.07020
C932        C  0.29048493  0.86837526  0.31551575    -0.15130
H933        H  0.28229527  0.83295947  0.34972160     0.11010
H934        H  0.33089391  0.84133489  0.25565255     0.11010
H935        H  0.32544252  0.88269282  0.23670589     0.11010
H936        H  0.27838287  0.87493536  0.33243204     0.11490
O937        O  0.28314544  0.78452575  0.82314887    -0.83580
C938        C  0.34751394  0.73189622  0.79211353     0.95780
O939        O  0.33097782  0.73954184  0.77788939    -0.72690
O940        O  0.29426496  0.75823163  0.76646310    -0.76290
Al941      Al  0.32943798  0.77188685  0.79470401     1.48980
C942        C  0.26776004  0.73858648  0.77144421     0.91030
O943        O  0.26182121  0.70881711  0.86552906    -0.82510
O944        O  0.30806872  0.74210293  0.90470200    -0.76060
Al945      Al  0.27581783  0.74753380  0.84297927     1.90120
O946        O  0.29824931  0.70120469  0.85411402    -0.75130
O947        O  0.35777084  0.77790627  0.87115786    -0.74980
O948        O  0.35071917  0.73362449  0.82529794    -0.80640
O949        O  0.36884799  0.78917418  0.81576381    -0.78850
O950        O  0.31073721  0.75296155  0.83286788    -1.14980
O951        O  0.32942304  0.80591739  0.80738899    -0.74180
C952        C  0.30648165  0.80691574  0.81265573     0.96540
C953        C  0.27332195  0.69261041  0.86698776     0.92940
Al954      Al  0.32762312  0.73981833  0.86174776     1.55560
O955        O  0.25899571  0.72748920  0.80125748    -0.78800
C956        C  0.37667498  0.79083128  0.84773862     0.97110
C957        C  0.29403829  0.75535154  0.91032570     0.91990
O958        O  0.28940835  0.76794818  0.88548483    -0.84120
O959        O  0.19527257  0.68449392  0.56695566    -0.83580
C960        C  0.13146316  0.73778353  0.54282007     0.95780
O961        O  0.14640137  0.72882383  0.52727859    -0.72690
O962        O  0.18214827  0.70869195  0.51358351    -0.76290
Al963      Al  0.14775593  0.69639384  0.54392820     1.48980
C964        C  0.20847078  0.72953233  0.51704291     0.91030
O965        O  0.21879986  0.75982376  0.61231464    -0.82510
O966        O  0.17405315  0.72621934  0.65297271    -0.76060
Al967      Al  0.20353197  0.72159228  0.58806798     1.90120
O968        O  0.18261620  0.76811758  0.60322147    -0.75130
O969        O  0.12360396  0.69174586  0.62136227    -0.74980
O970        O  0.12938467  0.73638470  0.57619620    -0.80640
O971        O  0.10880918  0.68030867  0.56716352    -0.78850
O972        O  0.16833580  0.71601273  0.58093885    -1.14980
O973        O  0.14772965  0.66246577  0.55724220    -0.74180
C974        C  0.17103090  0.66163807  0.55967659     0.96540
C975        C  0.20788619  0.77643961  0.61483358     0.92940
Al976      Al  0.15325068  0.72954342  0.61136167     1.55560
O977        O  0.21750182  0.74237849  0.54597346    -0.78800
C978        C  0.10302256  0.67991420  0.59972884     0.97110
C979        C  0.18834650  0.71288371  0.65617349     0.91990
O980        O  0.19199530  0.70084872  0.62998819    -0.84120
O981        O  0.19020221  0.97772007  0.48827002    -0.83580
C982        C  0.23710903  0.59398080  0.95851111     0.95780
O983        O  0.22662057  0.56961569  0.94359544    -0.72690
O984        O  0.21048396  0.51421705  0.93344291    -0.76290
Al985      Al  0.19749382  0.53529040  0.96425377     1.48980
C986        C  0.23173350  0.50926978  0.93583674     0.91030
O987        O  0.26706697  0.53423942  0.52892923    -0.82510
O988        O  0.23462722  0.54562560  0.56997286    -0.76060
Al989      Al  0.22752270  0.50875234  0.50730574     1.90120
O990        O  0.27300241  0.57690965  0.51561832    -0.75130
O991        O  0.19792186  0.55950926  0.54129972    -0.74980
O992        O  0.23901004  0.59586158  0.99177830    -0.80640
O993        O  0.18100683  0.55682769  0.98822907    -0.78850
O994        O  0.22014798  0.53728072  0.49942960    -1.14980
O995        O  0.16572470  0.00076264  0.98139620    -0.74180
C996        C  0.16643877  0.97746021  0.98194804     0.96540
C997        C  0.28270046  0.56208235  0.52970848     0.92940
Al998      Al  0.23500732  0.56742935  0.52768353     1.55560
O999        O  0.24596742  0.01419071  0.96400084    -0.78800
C1000       C  0.18256644  0.56431678  0.52027069     0.97110
C1001       C  0.22135014  0.51825011  0.57565878     0.91990
O1002       O  0.20874899  0.00066161  0.55098272    -0.84120
O1003       O  0.28574752  0.98856599  0.73477756    -0.83580
C1004       C  0.23616449  0.87192286  0.70877227     0.95780
O1005       O  0.24531978  0.89613753  0.69395819    -0.72690
O1006       O  0.26441361  0.95170476  0.68087686    -0.76290
Al1007     Al  0.27644884  0.93015953  0.71230905     1.48980
C1008       C  0.24303577  0.95638184  0.68297308     0.91030
O1009       O  0.20928756  0.93441585  0.77631934    -0.82510
O1010       O  0.24184190  0.92383137  0.81912204    -0.76060
Al1011     Al  0.24819805  0.95853886  0.75416415     1.90120
O1012       O  0.20201287  0.89048600  0.76683516    -0.75130
O1013       O  0.27804205  0.90901453  0.79032408    -0.74980
O1014       O  0.23588922  0.87051288  0.74222848    -0.80640
O1015       O  0.29258244  0.90819344  0.73692597    -0.78850
O1016       O  0.25503603  0.92973135  0.74795100    -1.14980
O1017       O  0.30940299  0.96463714  0.72722473    -0.74180
C1018       C  0.30928059  0.98828850  0.72847809     0.96540
C1019       C  0.19302030  0.90677742  0.77845658     0.92940
Al1020     Al  0.24057598  0.90042362  0.77761041     1.55560
O1021       O  0.22883320  0.95143054  0.71100681    -0.78800
C1022       C  0.29199674  0.90227667  0.76948368     0.97110
C1023       C  0.25449438  0.95145827  0.82282669     0.91990
O1024       O  0.26729723  0.96782659  0.79731535    -0.84120
O1025       O  0.48221506  0.77647219  0.90401505    -0.83580
C1026       C  0.09907088  0.84302968  0.87599227     0.95780
O1027       O  0.07461708  0.82747164  0.86166193    -0.72690
O1028       O  0.01925558  0.79030964  0.85002367    -0.76290
Al1029     Al  0.04076323  0.82500358  0.87968002     1.48980
C1030       C  0.01400881  0.76423640  0.85394532     0.91030
O1031       O  0.03746653  0.75650119  0.94799152    -0.82510
O1032       O  0.04854510  0.80099091  0.98823479    -0.76060
Al1033     Al  0.01253973  0.77012087  0.92482951     1.90120
O1034       O  0.08127962  0.79329667  0.93686427    -0.75130
O1035       O  0.06299967  0.85136981  0.95653325    -0.74980
O1036       O  0.10086734  0.84587798  0.90931346    -0.80640
O1037       O  0.06298178  0.86391828  0.90185439    -0.78850
O1038       O  0.04161969  0.80553634  0.91649234    -1.14980
O1039       O  0.50642657  0.82384489  0.89468624    -0.74180
C1040       C  0.48267498  0.80004453  0.89621864     0.96540
C1041       C  0.06528863  0.76818663  0.94931382     0.92940
Al1042     Al  0.07138312  0.82193771  0.94576305     1.55560
O1043       O  0.01795771  0.75547670  0.88294793    -0.78800
C1044       C  0.06919582  0.87090176  0.93402386     0.97110
C1045       C  0.02088806  0.78602978  0.99231955     0.91990
O1046       O  0.00433814  0.78228303  0.96694780    -0.84120
O1047       O  0.99397553  0.69061865  0.65208006    -0.83580
C1048       C  0.37623725  0.62444210  0.62897455     0.95780
O1049       O  0.39993768  0.63917764  0.61290210    -0.72690
O1050       O  0.45541822  0.67645129  0.59896960    -0.76290
Al1051     Al  0.43450931  0.64213998  0.62955356     1.48980
C1052       C  0.46161949  0.70291932  0.60269037     0.91030
O1053       O  0.44164669  0.71283139  0.69750727    -0.82510
O1054       O  0.43091350  0.66891460  0.73834210    -0.76060
Al1055     Al  0.46489586  0.69798163  0.67348734     1.90120
O1056       O  0.39700785  0.67659622  0.68826943    -0.75130
O1057       O  0.41510859  0.61845091  0.70754699    -0.74980
O1058       O  0.37579360  0.62323587  0.66236120    -0.80640
O1059       O  0.41263249  0.60356870  0.65354478    -0.78850
O1060       O  0.43525430  0.66272119  0.66633891    -1.14980
O1061       O  0.46939093  0.64332830  0.64223593    -0.74180
C1062       C  0.99331526  0.66700589  0.64407437     0.96540
C1063       C  0.41399177  0.70194567  0.69951612     0.92940
Al1064     Al  0.40661280  0.64763580  0.69698232     1.55560
O1065       O  0.45817560  0.71191942  0.63178199    -0.78800
C1066       C  0.40702953  0.59788824  0.68611996     0.97110
C1067       C  0.45868683  0.68299022  0.74143746     0.91990
O1068       O  0.47418973  0.68629689  0.71516902    -0.84120
C1069       C  0.47261923  0.71808044  0.83108555    -0.15130
C1070       C  0.00045624  0.74274430  0.82591134     0.07020
C1071       C  0.01521950  0.74610396  0.79455530    -0.15130
C1072       C  0.00217468  0.72517298  0.76832513    -0.15130
C1073       C  0.47367509  0.70095585  0.77254658     0.07020
C1074       C  0.45905051  0.69750473  0.80430810    -0.15130
H1075       H  0.46106898  0.71527684  0.85549672     0.11010
H1076       H  0.03679600  0.76485255  0.79041490     0.11010
H1077       H  0.01400392  0.72881264  0.74397494     0.11010
H1078       H  0.43702985  0.67942729  0.80806402     0.11010
C1079       C  0.50655656  0.77538657  0.55583092    -0.15130
C1080       C  0.00745600  0.76593544  0.52197151     0.07020
C1081       C  0.99244527  0.73581262  0.51458934    -0.15130
C1082       C  0.47718538  0.71533749  0.54054807    -0.15130
C1083       C  0.47590871  0.72452173  0.57441183     0.07020
C1084       C  0.49067330  0.75477312  0.58189032    -0.15130
H1085       H  0.51751715  0.79846354  0.56187302     0.11010
H1086       H  0.99243011  0.72790991  0.98847957     0.11010
H1087       H  0.46633904  0.69233699  0.53407048     0.11010
H1088       H  0.49036563  0.76250596  0.60804808     0.11010
C1089       C  0.14472043  0.86423148  0.79378594    -0.15130
C1090       C  0.16669150  0.89298309  0.80091948     0.07020
C1091       C  0.16697713  0.90505060  0.83390248    -0.15130
C1092       C  0.14606559  0.88837225  0.85948544    -0.15130
C1093       C  0.12424074  0.85952504  0.85222234     0.07020
C1094       C  0.12363925  0.84785542  0.81892608    -0.15130
H1095       H  0.14440996  0.85410168  0.76902150     0.11010
H1096       H  0.18420857  0.92683847  0.84053685     0.11010
H1097       H  0.14666173  0.89812894  0.88460632     0.11010
H1098       H  0.10677903  0.82582486  0.81234165     0.11010
C1099       C  0.34549667  0.54027857  0.73995243    -0.15130
C1100       C  0.33632513  0.51534773  0.71963090     0.07020
C1101       C  0.35249362  0.51663442  0.68968238    -0.15130
C1102       C  0.37667091  0.54315557  0.67905831    -0.15130
C1103       C  0.38559217  0.56838443  0.69911596     0.07020
C1104       C  0.37018940  0.56632841  0.73025375    -0.15130
H1105       H  0.33337320  0.53966387  0.76311085     0.11010
H1106       H  0.34549432  0.99742281  0.67357272     0.11010
H1107       H  0.38773853  0.54413294  0.65482351     0.11010
H1108       H  0.37609748  0.58536504  0.74627090     0.11010
C1109       C  0.20279269  0.98226499  0.62459191    -0.15130
C1110       C  0.22619286  0.00611762  0.60785720     0.07020
C1111       C  0.25485695  0.51281501  0.61543762    -0.15130
C1112       C  0.26020325  0.99540918  0.63819372    -0.15130
C1113       C  0.23688118  0.97154873  0.65490561     0.07020
C1114       C  0.20815636  0.96559304  0.64873459    -0.15130
H1115       H  0.18045023  0.97614781  0.61827902     0.11010
H1116       H  0.27307127  0.53066423  0.60223872     0.11010
H1117       H  0.28258625  0.00103142  0.64343272     0.11010
H1118       H  0.18987292  0.94768072  0.66208558     0.11010
C1119       C  0.25089627  0.97741841  0.91425480    -0.15130
C1120       C  0.23839141  0.99498396  0.90701506     0.07020
C1121       C  0.23080309  0.99717927  0.87256678    -0.15130
C1122       C  0.23626436  0.98276696  0.84574759    -0.15130
C1123       C  0.24857939  0.96511376  0.85285383     0.07020
C1124       C  0.25560924  0.96222748  0.88734942    -0.15130
H1125       H  0.25650154  0.47498476  0.94085396     0.11010
H1126       H  0.22090833  0.01023647  0.86633299     0.11010
H1127       H  0.23050661  0.98518472  0.81922037     0.11010
H1128       H  0.26516962  0.94883149  0.89331236     0.11010
C1129       C  0.31604279  0.60634787  0.56454097    -0.15130
C1130       C  0.30834470  0.57788988  0.55357875     0.07020
C1131       C  0.32234678  0.56434286  0.56963602    -0.15130
C1132       C  0.34314333  0.57883260  0.59628404    -0.15130
C1133       C  0.35007894  0.60693188  0.60739700     0.07020
C1134       C  0.33662912  0.62063421  0.59099175    -0.15130
H1135       H  0.30567245  0.61758833  0.55315712     0.11010
H1136       H  0.31685986  0.54248902  0.56205751     0.11010
H1137       H  0.35436729  0.56843074  0.60768467     0.11010
H1138       H  0.34257449  0.64272383  0.59811716     0.11010
C1139       C  0.13617870  0.94505916  0.93394300    -0.15130
C1140       C  0.14028449  0.95089011  0.97001550     0.07020
C1141       C  0.11813702  0.93302223  0.99340272    -0.15130
C1142       C  0.09297777  0.90827900  0.98101191    -0.15130
C1143       C  0.08953721  0.90125891  0.94501204     0.07020
C1144       C  0.11092832  0.92049916  0.92147338    -0.15130
H1145       H  0.15285533  0.95925496  0.91548202     0.11010
H1146       H  0.12063159  0.93781835  0.52119014     0.11010
H1147       H  0.07695207  0.89369060  0.99981031     0.11010
H1148       H  0.10918111  0.91546646  0.89377044     0.11010
C1149       C  0.04767290  0.65302949  0.59567202    -0.15130
C1150       C  0.07377795  0.67274019  0.61261494     0.07020
C1151       C  0.07268434  0.68917189  0.64108099    -0.15130
C1152       C  0.04649481  0.68693253  0.65153366    -0.15130
C1153       C  0.02048909  0.66746394  0.63466066     0.07020
C1154       C  0.02103339  0.64998213  0.60714331    -0.15130
H1155       H  0.04794386  0.64045636  0.57348397     0.11010
H1156       H  0.09242441  0.70501556  0.65446708     0.11010
H1157       H  0.04660195  0.70066073  0.67262812     0.11010
H1158       H  0.50104603  0.63498784  0.59351251     0.11010
C1159       C  0.06767786  0.74140621  0.00250600    -0.15130
C1160       C  0.08007016  0.75609363  0.97085842     0.07020
C1161       C  0.10964982  0.76551629  0.96422225    -0.15130
C1162       C  0.12649868  0.76071140  0.98855107    -0.15130
C1163       C  0.11444661  0.74673833  0.52051601     0.07020
C1164       C  0.08477525  0.73687387  0.52723755    -0.15130
H1165       H  0.04519289  0.73454867  0.00878622     0.11010
H1166       H  0.12002798  0.77739839  0.94046406     0.11010
H1167       H  0.14912712  0.76792772  0.98234363     0.11010
H1168       H  0.07470615  0.72513677  0.55117848     0.11010
C1169       C  0.21768454  0.82643465  0.62643061    -0.15130
C1170       C  0.22108532  0.80297373  0.63681337     0.07020
C1171       C  0.22898708  0.80177302  0.67180606    -0.15130
C1172       C  0.23273468  0.82341540  0.69607760    -0.15130
C1173       C  0.22876972  0.84662696  0.68559241     0.07020
C1174       C  0.22165535  0.84800610  0.65034168    -0.15130
H1175       H  0.21072642  0.82741778  0.59999806     0.11010
H1176       H  0.23067952  0.78330026  0.68081246     0.11010
H1177       H  0.23894590  0.82216175  0.72279431     0.11010
H1178       H  0.21882878  0.86578439  0.64121148     0.11010
C1179       C  0.17914510  0.62089994  0.57569211    -0.15130
C1180       C  0.16995792  0.63417560  0.55125699     0.07020
C1181       C  0.15988935  0.62123594  0.51820623    -0.15130
C1182       C  0.16129788  0.59647544  0.50864611    -0.15130
C1183       C  0.17209301  0.58397430  0.53245277     0.07020
C1184       C  0.17963039  0.59567866  0.56664764    -0.15130
H1185       H  0.18647522  0.63036679  0.60147074     0.11010
H1186       H  0.15247838  0.63126664  0.49915219     0.11010
H1187       H  0.15570251  0.58828732  0.98210202     0.11010
H1188       H  0.18804934  0.58664827  0.58576516     0.11010
C1189       C  0.35677706  0.71748744  0.73340728    -0.15130
C1190       C  0.36507808  0.72425883  0.76876889     0.07020
C1191       C  0.39178306  0.72712321  0.77977465    -0.15130
C1192       C  0.40958519  0.72300574  0.75590035    -0.15130
C1193       C  0.40068398  0.71536665  0.72086633     0.07020
C1194       C  0.37416774  0.71275360  0.70990911    -0.15130
H1195       H  0.33649096  0.71541324  0.72392876     0.11010
H1196       H  0.39895394  0.73267375  0.80668394     0.11010
H1197       H  0.42945416  0.72410631  0.76527977     0.11010
H1198       H  0.36639407  0.70597551  0.68337873     0.11010
C1199       C  0.41638721  0.80904578  0.89243516    -0.15130
C1200       C  0.40729661  0.80104282  0.85747275     0.07020
C1201       C  0.42417417  0.79424776  0.83529178    -0.15130
C1202       C  0.44829565  0.79323303  0.84850850    -0.15130
C1203       C  0.45630917  0.79969456  0.88382220     0.07020
C1204       C  0.44101291  0.80875408  0.90540405    -0.15130
H1205       H  0.40347161  0.81393883  0.91019815     0.11010
H1206       H  0.41741508  0.78751884  0.80848697     0.11010
H1207       H  0.46053189  0.78702995  0.83128224     0.11010
H1208       H  0.44756900  0.81468871  0.93243405     0.11010
C1209       C  0.27213380  0.77245202  0.95578104    -0.15130
C1210       C  0.27666743  0.75034507  0.94243203     0.07020
C1211       C  0.25819951  0.72148456  0.95351337    -0.15130
C1212       C  0.23493044  0.71460975  0.97626035    -0.15130
C1213       C  0.23025222  0.73662859  0.98926042     0.07020
C1214       C  0.24957271  0.76573517  0.97977371    -0.15130
H1215       H  0.28554573  0.79474941  0.94687343     0.11010
H1216       H  0.26060724  0.70394843  0.94293536     0.11010
H1217       H  0.22085985  0.69213007  0.98421845     0.11010
H1218       H  0.24677509  0.78312561  0.99036209     0.11010
C1219       C  0.21790723  0.72469338  0.74912341    -0.15130
C1220       C  0.24635635  0.72972679  0.74278679     0.07020
C1221       C  0.25461774  0.72775304  0.70868368    -0.15130
C1222       C  0.23483427  0.72079175  0.68127285    -0.15130
C1223       C  0.20663906  0.71660439  0.68713441     0.07020
C1224       C  0.19830602  0.71874474  0.72129049    -0.15130
H1225       H  0.21129374  0.72649113  0.77541022     0.11010
H1226       H  0.27641564  0.73168047  0.70323593     0.11010
H1227       H  0.24214082  0.71986319  0.65506285     0.11010
H1228       H  0.17691888  0.71600451  0.72633964     0.11010
C1229       C  0.28066434  0.66863850  0.91827030    -0.15130
C1230       C  0.26210878  0.66741737  0.89092705     0.07020
C1231       C  0.23465870  0.64235982  0.88696080    -0.15130
C1232       C  0.22651209  0.61843644  0.90930477    -0.15130
C1233       C  0.24527323  0.61978102  0.93651610     0.07020
C1234       C  0.27209577  0.64530336  0.94129969    -0.15130
H1235       H  0.30195966  0.68789887  0.92191972     0.11010
H1236       H  0.22010034  0.64095846  0.86610317     0.11010
H1237       H  0.20554518  0.59880375  0.90538625     0.11010
H1238       H  0.28683528  0.64676622  0.96197671     0.11010
C1239       C  0.29239861  0.84412398  0.82549412    -0.15130
C1240       C  0.30663479  0.83398076  0.80393595     0.07020
C1241       C  0.31982032  0.84901180  0.77270239    -0.15130
C1242       C  0.31693257  0.87273088  0.76195592    -0.15130
C1243       C  0.30168904  0.88229553  0.78297648     0.07020
C1244       C  0.29048493  0.86837526  0.81551576    -0.15130
H1245       H  0.28229527  0.83295946  0.84972161     0.11010
H1246       H  0.33089391  0.84133489  0.75565256     0.11010
H1247       H  0.32544252  0.88269282  0.73670590     0.11010
H1248       H  0.27838286  0.87493536  0.83243205     0.11490
O1249       O  0.78314545  0.28452576  0.32314885    -0.83580
C1250       C  0.84751396  0.23189623  0.29211352     0.95780
O1251       O  0.83097784  0.23954185  0.27788937    -0.72690
O1252       O  0.79426498  0.25823164  0.26646309    -0.76290
Al1253     Al  0.82943799  0.27188686  0.29470399     1.48980
C1254       C  0.76776006  0.23858649  0.27144420     0.91030
O1255       O  0.76182124  0.20881712  0.36552904    -0.82510
O1256       O  0.80806874  0.24210295  0.40470198    -0.76060
Al1257     Al  0.77581785  0.24753381  0.34297925     1.90120
O1258       O  0.79824934  0.20120470  0.35411401    -0.75130
O1259       O  0.85777086  0.27790629  0.37115784    -0.74980
O1260       O  0.85071919  0.23362450  0.32529793    -0.80640
O1261       O  0.86884801  0.28917420  0.31576379    -0.78850
O1262       O  0.81073723  0.25296157  0.33286786    -1.14980
O1263       O  0.82942306  0.30591740  0.30738897    -0.74180
C1264       C  0.80648166  0.30691575  0.31265571     0.96540
C1265       C  0.77332197  0.19261043  0.36698776     0.92940
Al1266     Al  0.82762314  0.23981835  0.36174775     1.55560
O1267       O  0.75899573  0.22748921  0.30125747    -0.78800
C1268       C  0.87667500  0.29083130  0.34773860     0.97110
C1269       C  0.79403830  0.25535155  0.41032569     0.91990
O1270       O  0.78940837  0.26794820  0.38548481    -0.84120
O1271       O  0.69527257  0.18449392  0.06695565    -0.83580
C1272       C  0.63146316  0.23778353  0.04282006     0.95780
O1273       O  0.64640137  0.22882383  0.02727858    -0.72690
O1274       O  0.68214827  0.20869195  0.01358349    -0.76290
Al1275     Al  0.64775593  0.19639384  0.04392819     1.48980
C1276       C  0.70847079  0.22953233  0.01704290     0.91030
O1277       O  0.71879986  0.25982376  0.11231462    -0.82510
O1278       O  0.67405316  0.22621934  0.15297270    -0.76060
Al1279     Al  0.70353198  0.22159228  0.08806796     1.90120
O1280       O  0.68261621  0.26811758  0.10322146    -0.75130
O1281       O  0.62360397  0.19174586  0.12136226    -0.74980
O1282       O  0.62938468  0.23638470  0.07619619    -0.80640
O1283       O  0.60880919  0.18030867  0.06716351    -0.78850
O1284       O  0.66833580  0.21601274  0.08093884    -1.14980
O1285       O  0.64772965  0.16246577  0.05724219    -0.74180
C1286       C  0.67103090  0.16163807  0.05967657     0.96540
C1287       C  0.70788620  0.27643961  0.11483357     0.92940
Al1288     Al  0.65325069  0.22954343  0.11136166     1.55560
O1289       O  0.71750183  0.24237849  0.04597344    -0.78800
C1290       C  0.60302257  0.17991420  0.09972883     0.97110
C1291       C  0.68834651  0.21288371  0.15617348     0.91990
O1292       O  0.69199531  0.20084873  0.12998818    -0.84120
O1293       O  0.69020221  0.47772007  0.98827001    -0.83580
C1294       C  0.73710906  0.09398084  0.45851114     0.95780
O1295       O  0.72662063  0.06961573  0.44359545    -0.72690
O1296       O  0.71048401  0.01421710  0.43344292    -0.76290
Al1297     Al  0.69749385  0.03529044  0.46425374     1.48980
C1298       C  0.73173354  0.00926982  0.43583678     0.91030
O1299       O  0.76706697  0.03423943  0.02892924    -0.82510
O1300       O  0.73462721  0.04562560  0.06997287    -0.76060
Al1301     Al  0.72752270  0.00875234  0.00730575     1.90120
O1302       O  0.77300240  0.07690966  0.01561833    -0.75130
O1303       O  0.69792184  0.05950926  0.04129972    -0.74980
O1304       O  0.73901003  0.09586161  0.49177832    -0.80640
O1305       O  0.68100684  0.05682773  0.48822902    -0.78850
O1306       O  0.72014798  0.03728073  0.99942961    -1.14980
O1307       O  0.66572470  0.50076263  0.48139623    -0.74180
C1308       C  0.66643876  0.47746020  0.48194806     0.96540
C1309       C  0.78270046  0.06208236  0.02970848     0.92940
Al1310     Al  0.73500731  0.06742935  0.02768353     1.55560
O1311       O  0.74596741  0.51419070  0.46400083    -0.78800
C1312       C  0.68256643  0.06431678  0.02027068     0.97110
C1313       C  0.72135013  0.01825012  0.07565879     0.91990
O1314       O  0.70874900  0.50066162  0.05098271    -0.84120
O1315       O  0.78574751  0.48856599  0.23477757    -0.83580
C1316       C  0.73616452  0.37192286  0.20877225     0.95780
O1317       O  0.74531981  0.39613754  0.19395818    -0.72690
O1318       O  0.76441362  0.45170476  0.18087686    -0.76290
Al1319     Al  0.77644885  0.43015953  0.21230905     1.48980
C1320       C  0.74303578  0.45638184  0.18297307     0.91030
O1321       O  0.70928755  0.43441582  0.27631932    -0.82510
O1322       O  0.74184188  0.42383135  0.31912203    -0.76060
Al1323     Al  0.74819804  0.45853885  0.25416414     1.90120
O1324       O  0.70201286  0.39048599  0.26683513    -0.75130
O1325       O  0.77804204  0.40901452  0.29032408    -0.74980
O1326       O  0.73588923  0.37051288  0.24222846    -0.80640
O1327       O  0.79258245  0.40819345  0.23692597    -0.78850
O1328       O  0.75503603  0.42973134  0.24795099    -1.14980
O1329       O  0.80940299  0.46463715  0.22722475    -0.74180
C1330       C  0.80928059  0.48828851  0.22847811     0.96540
C1331       C  0.69302029  0.40677740  0.27845655     0.92940
Al1332     Al  0.74057598  0.40042361  0.27761039     1.55560
O1333       O  0.72883320  0.45143052  0.21100679    -0.78800
C1334       C  0.79199675  0.40227668  0.26948369     0.97110
C1335       C  0.75449435  0.45145825  0.32282668     0.91990
O1336       O  0.76729721  0.46782658  0.29731535    -0.84120
O1337       O  0.98221508  0.27647220  0.40401501    -0.83580
C1338       C  0.59907090  0.34302966  0.37599227     0.95780
O1339       O  0.57461710  0.32747162  0.36166192    -0.72690
O1340       O  0.51925560  0.29030964  0.35002365    -0.76290
Al1341     Al  0.54076325  0.32500358  0.37967999     1.48980
C1342       C  0.51400882  0.26423639  0.35394531     0.91030
O1343       O  0.53746652  0.25650119  0.44799152    -0.82510
O1344       O  0.54854510  0.30099092  0.48823478    -0.76060
Al1345     Al  0.51253973  0.27012088  0.42482950     1.90120
O1346       O  0.58127962  0.29329668  0.43686428    -0.75130
O1347       O  0.56299967  0.35136982  0.45653322    -0.74980
O1348       O  0.60086735  0.34587797  0.40931345    -0.80640
O1349       O  0.56298180  0.36391828  0.40185435    -0.78850
O1350       O  0.54161970  0.30553634  0.41649232    -1.14980
O1351       O  0.00642659  0.32384490  0.39468617    -0.74180
C1352       C  0.98267501  0.30004454  0.39621858     0.96540
C1353       C  0.56528862  0.26818663  0.44931383     0.92940
Al1354     Al  0.57138312  0.32193772  0.44576305     1.55560
O1355       O  0.51795771  0.25547669  0.38294792    -0.78800
C1356       C  0.56919583  0.37090176  0.43402382     0.97110
C1357       C  0.52088805  0.28602979  0.49231953     0.91990
O1358       O  0.50433813  0.28228305  0.46694778    -0.84120
O1359       O  0.49397554  0.19061865  0.15208004    -0.83580
C1360       C  0.87623726  0.12444212  0.12897453     0.95780
O1361       O  0.89993768  0.13917768  0.11290208    -0.72690
O1362       O  0.95541823  0.17645133  0.09896956    -0.76290
Al1363     Al  0.93450931  0.14214000  0.12955351     1.48980
C1364       C  0.96161950  0.20291935  0.10269034     0.91030
O1365       O  0.94164671  0.21283140  0.19750726    -0.82510
O1366       O  0.93091353  0.16891459  0.23834208    -0.76060
Al1367     Al  0.96489587  0.19798164  0.17348731     1.90120
O1368       O  0.89700787  0.17659622  0.18826943    -0.75130
O1369       O  0.91510862  0.11845092  0.20754693    -0.74980
O1370       O  0.87579362  0.12323588  0.16236118    -0.80640
O1371       O  0.91263251  0.10356872  0.15354472    -0.78850
O1372       O  0.93525432  0.16272121  0.16633888    -1.14980
O1373       O  0.96939094  0.14332833  0.14223585    -0.74180
C1374       C  0.49331527  0.16700589  0.14407433     0.96540
C1375       C  0.91399178  0.20194568  0.19951612     0.92940
Al1376     Al  0.90661282  0.14763580  0.19698229     1.55560
O1377       O  0.95817561  0.21191945  0.13178198    -0.78800
C1378       C  0.90702956  0.09788825  0.18611990     0.97110
C1379       C  0.95868686  0.18299022  0.24143743     0.91990
O1380       O  0.97418976  0.18629690  0.21516898    -0.84120
C1381       C  0.97261926  0.21808042  0.33108552    -0.15130
C1382       C  0.50045626  0.24274429  0.32591133     0.07020
C1383       C  0.51521951  0.24610396  0.29455529    -0.15130
C1384       C  0.50217469  0.22517298  0.26832512    -0.15130
C1385       C  0.97367512  0.20095584  0.27254655     0.07020
C1386       C  0.95905055  0.19750472  0.30430808    -0.15130
H1387       H  0.96106901  0.21527681  0.35549670     0.11010
H1388       H  0.53679601  0.26485255  0.29041488     0.11010
H1389       H  0.51400393  0.22881263  0.24397492     0.11010
H1390       H  0.93702989  0.17942728  0.30806399     0.11010
C1391       C  0.00655659  0.27538661  0.05583090    -0.15130
C1392       C  0.50745597  0.26593546  0.02197149     0.07020
C1393       C  0.49244521  0.23581264  0.01458931    -0.15130
C1394       C  0.97718531  0.21533753  0.04054802    -0.15130
C1395       C  0.97590870  0.22452177  0.07441180     0.07020
C1396       C  0.99067334  0.25477316  0.08189031    -0.15130
H1397       H  0.01751722  0.29846358  0.06187302     0.11010
H1398       H  0.49243006  0.22790992  0.48847954     0.11010
H1399       H  0.96633892  0.19233703  0.03407041     0.11010
H1400       H  0.99036573  0.26250599  0.10804809     0.11010
C1401       C  0.64472045  0.36423143  0.29378595    -0.15130
C1402       C  0.66669150  0.39298306  0.30091946     0.07020
C1403       C  0.66697711  0.40505058  0.33390244    -0.15130
C1404       C  0.64606559  0.38837224  0.35948542    -0.15130
C1405       C  0.62424076  0.35952501  0.35222234     0.07020
C1406       C  0.62363928  0.34785537  0.31892610    -0.15130
H1407       H  0.64440999  0.35410162  0.26902152     0.11010
H1408       H  0.68420854  0.42683847  0.34053679     0.11010
H1409       H  0.64666172  0.39812895  0.38460628     0.11010
H1410       H  0.60677908  0.32582481  0.31234169     0.11010
C1411       C  0.84549678  0.04027856  0.23995245    -0.15130
C1412       C  0.83632517  0.01534774  0.21963086     0.07020
C1413       C  0.85249359  0.01663444  0.18968228    -0.15130
C1414       C  0.87667089  0.04315558  0.17905819    -0.15130
C1415       C  0.88559221  0.06838443  0.19911590     0.07020
C1416       C  0.87018952  0.06632839  0.23025376    -0.15130
H1417       H  0.83337337  0.03966385  0.26311092     0.11010
H1418       H  0.84549435  0.49742280  0.17357278     0.11010
H1419       H  0.88773845  0.04413297  0.15482334     0.11010
H1420       H  0.87609765  0.08536501  0.24627096     0.11010
C1421       C  0.70279271  0.48226499  0.12459191    -0.15130
C1422       C  0.72619288  0.50611763  0.10785719     0.07020
C1423       C  0.75485694  0.01281495  0.11543755    -0.15130
C1424       C  0.76020326  0.49540918  0.13819370    -0.15130
C1425       C  0.73688119  0.47154873  0.15490560     0.07020
C1426       C  0.70815637  0.46559304  0.14873458    -0.15130
H1427       H  0.68045024  0.47614782  0.11827902     0.11010
H1428       H  0.77307126  0.03066411  0.10223856     0.11010
H1429       H  0.78258626  0.50103141  0.14343270     0.11010
H1430       H  0.68987293  0.44768073  0.16208557     0.11010
C1431       C  0.75089621  0.47741836  0.41425480    -0.15130
C1432       C  0.73839138  0.49498393  0.40701506     0.07020
C1433       C  0.73080308  0.49717927  0.37256677    -0.15130
C1434       C  0.73626435  0.48276695  0.34574759    -0.15130
C1435       C  0.74857935  0.46511373  0.35285383     0.07020
C1436       C  0.75560918  0.46222743  0.38734941    -0.15130
H1437       H  0.75650170  0.97498490  0.44085399     0.11010
H1438       H  0.72090834  0.51023648  0.36633299     0.11010
H1439       H  0.73050661  0.48518473  0.31922036     0.11010
H1440       H  0.76516955  0.44883142  0.39331235     0.11010
C1441       C  0.81604280  0.10634789  0.06454095    -0.15130
C1442       C  0.80834470  0.07788989  0.05357875     0.07020
C1443       C  0.82234678  0.06434287  0.06963603    -0.15130
C1444       C  0.84314333  0.07883261  0.09628404    -0.15130
C1445       C  0.85007895  0.10693190  0.10739699     0.07020
C1446       C  0.83662914  0.12063423  0.09099172    -0.15130
H1447       H  0.80567246  0.11758835  0.05315709     0.11010
H1448       H  0.81685985  0.04248903  0.06205752     0.11010
H1449       H  0.85436728  0.06843075  0.10768468     0.11010
H1450       H  0.84257451  0.14272386  0.09811712     0.11010
C1451       C  0.63617874  0.44505914  0.43394300    -0.15130
C1452       C  0.64028449  0.45089011  0.47001549     0.07020
C1453       C  0.61813698  0.43302225  0.49340269    -0.15130
C1454       C  0.59297774  0.40827903  0.48101187    -0.15130
C1455       C  0.58953721  0.40125892  0.44501199     0.07020
C1456       C  0.61092836  0.42049915  0.42147336    -0.15130
H1457       H  0.65285540  0.45925493  0.41548204     0.11010
H1458       H  0.62063147  0.43781842  0.02119008     0.11010
H1459       H  0.57695201  0.39369064  0.49981025     0.11010
H1460       H  0.60918117  0.41546644  0.39377042     0.11010
C1461       C  0.54767291  0.15302952  0.09567197    -0.15130
C1462       C  0.57377796  0.17274018  0.11261493     0.07020
C1463       C  0.57268434  0.18917185  0.14108102    -0.15130
C1464       C  0.54649480  0.18693249  0.15153368    -0.15130
C1465       C  0.52048909  0.16746393  0.13466063     0.07020
C1466       C  0.52103340  0.14998216  0.10714325    -0.15130
H1467       H  0.54794388  0.14045641  0.07348390     0.11010
H1468       H  0.59242439  0.20501548  0.15446714     0.11010
H1469       H  0.54660194  0.20066067  0.17262817     0.11010
H1470       H  0.00104606  0.13498792  0.09351238     0.11010
C1471       C  0.56767787  0.24140623  0.50250603    -0.15130
C1472       C  0.58007015  0.25609363  0.47085843     0.07020
C1473       C  0.60964981  0.26551628  0.46422223    -0.15130
C1474       C  0.62649867  0.26071139  0.48855105    -0.15130
C1475       C  0.61444661  0.24673832  0.02051600     0.07020
C1476       C  0.58477526  0.23687390  0.02723758    -0.15130
H1477       H  0.54519290  0.23454871  0.50878625     0.11010
H1478       H  0.62002795  0.27739835  0.44046403     0.11010
H1479       H  0.64912711  0.26792770  0.48234359     0.11010
H1480       H  0.57470617  0.22513683  0.05117853     0.11010
C1481       C  0.71768456  0.32643466  0.12643059    -0.15130
C1482       C  0.72108533  0.30297374  0.13681335     0.07020
C1483       C  0.72898710  0.30177302  0.17180604    -0.15130
C1484       C  0.73273470  0.32341541  0.19607758    -0.15130
C1485       C  0.72876975  0.34662696  0.18559239     0.07020
C1486       C  0.72165537  0.34800611  0.15034166    -0.15130
H1487       H  0.71072644  0.32741779  0.09999804     0.11010
H1488       H  0.73067953  0.28330026  0.18081244     0.11010
H1489       H  0.73894591  0.32216175  0.22279429     0.11010
H1490       H  0.71882881  0.36578440  0.14121146     0.11010
C1491       C  0.67914508  0.12089993  0.07569211    -0.15130
C1492       C  0.66995792  0.13417560  0.05125697     0.07020
C1493       C  0.65988935  0.12123595  0.01820622    -0.15130
C1494       C  0.66129788  0.09647544  0.00864610    -0.15130
C1495       C  0.67209299  0.08397430  0.03245276     0.07020
C1496       C  0.67963037  0.09567864  0.06664763    -0.15130
H1497       H  0.68647520  0.13036677  0.10147073     0.11010
H1498       H  0.65247840  0.13126666  0.99915217     0.11010
H1499       H  0.65570261  0.08828743  0.48210191     0.11010
H1500       H  0.68804931  0.08664825  0.08576516     0.11010
C1501       C  0.85677708  0.21748745  0.23340727    -0.15130
C1502       C  0.86507810  0.22425885  0.26876888     0.07020
C1503       C  0.89178308  0.22712323  0.27977464    -0.15130
C1504       C  0.90958521  0.22300576  0.25590034    -0.15130
C1505       C  0.90068400  0.21536666  0.22086633     0.07020
C1506       C  0.87416776  0.21275360  0.20990911    -0.15130
H1507       H  0.83649097  0.21541324  0.22392875     0.11010
H1508       H  0.89895397  0.23267378  0.30668392     0.11010
H1509       H  0.92945419  0.22410633  0.26527976     0.11010
H1510       H  0.86639408  0.20597550  0.18337873     0.11010
C1511       C  0.91638722  0.30904578  0.39243514    -0.15130
C1512       C  0.90729663  0.30104284  0.35747273     0.07020
C1513       C  0.92417420  0.29424781  0.33529174    -0.15130
C1514       C  0.94829568  0.29323307  0.34850845    -0.15130
C1515       C  0.95630919  0.29969458  0.38382215     0.07020
C1516       C  0.94101293  0.30875408  0.40540402    -0.15130
H1517       H  0.90347162  0.31393882  0.41019815     0.11010
H1518       H  0.91741511  0.28751890  0.30848692     0.11010
H1519       H  0.96053192  0.28703001  0.33128217     0.11010
H1520       H  0.94756902  0.31468869  0.43243402     0.11010
C1521       C  0.77213382  0.27245203  0.45578103    -0.15130
C1522       C  0.77666745  0.25034509  0.44243201     0.07020
C1523       C  0.75819951  0.22148457  0.45351334    -0.15130
C1524       C  0.73493045  0.21460976  0.47626031    -0.15130
C1525       C  0.73025223  0.23662861  0.48926040     0.07020
C1526       C  0.74957274  0.26573519  0.47977370    -0.15130
H1527       H  0.78554577  0.29474943  0.44687343     0.11010
H1528       H  0.76060724  0.20394844  0.44293533     0.11010
H1529       H  0.72085985  0.19213008  0.48421840     0.11010
H1530       H  0.74677512  0.28312563  0.49036208     0.11010
C1531       C  0.71790724  0.22469337  0.24912339    -0.15130
C1532       C  0.74635637  0.22972680  0.24278677     0.07020
C1533       C  0.75461777  0.22775306  0.20868366    -0.15130
C1534       C  0.73483429  0.22079178  0.18127283    -0.15130
C1535       C  0.70663907  0.21660440  0.18713440     0.07020
C1536       C  0.69830603  0.21874473  0.22129048    -0.15130
H1537       H  0.71129374  0.22649111  0.27541021     0.11010
H1538       H  0.77641567  0.23168052  0.20323591     0.11010
H1539       H  0.74214084  0.21986323  0.15506283     0.11010
H1540       H  0.67691888  0.21600449  0.22633963     0.11010
C1541       C  0.78066438  0.16863852  0.41827029    -0.15130
C1542       C  0.76210881  0.16741740  0.39092705     0.07020
C1543       C  0.73465872  0.14235985  0.38696082    -0.15130
C1544       C  0.72651212  0.11843647  0.40930480    -0.15130
C1545       C  0.74527326  0.11978105  0.43651612     0.07020
C1546       C  0.77209581  0.14530339  0.44129969    -0.15130
H1547       H  0.80195970  0.18789889  0.42191969     0.11010
H1548       H  0.72010035  0.14095850  0.36610321     0.11010
H1549       H  0.70554520  0.09880379  0.40538630     0.11010
H1550       H  0.78683532  0.14676625  0.46197670     0.11010
C1551       C  0.79239861  0.34412398  0.32549412    -0.15130
C1552       C  0.80663481  0.33398077  0.30393595     0.07020
C1553       C  0.81982035  0.34901183  0.27270240    -0.15130
C1554       C  0.81693260  0.37273090  0.26195594    -0.15130
C1555       C  0.80168905  0.38229554  0.28297649     0.07020
C1556       C  0.79048493  0.36837526  0.31551576    -0.15130
H1557       H  0.78229526  0.33295945  0.34972159     0.11010
H1558       H  0.83089395  0.34133492  0.25565258     0.11010
H1559       H  0.82544256  0.38269286  0.23670592     0.11010
H1560       H  0.77838285  0.37493534  0.33243204     0.11490
O1561       O  0.78314545  0.28452575  0.82314886    -0.83580
C1562       C  0.84751395  0.23189622  0.79211352     0.95780
O1563       O  0.83097782  0.23954184  0.77788937    -0.72690
O1564       O  0.79426497  0.25823163  0.76646309    -0.76290
Al1565     Al  0.82943799  0.27188685  0.79470399     1.48980
C1566       C  0.76776005  0.23858648  0.77144420     0.91030
O1567       O  0.76182123  0.20881711  0.86552905    -0.82510
O1568       O  0.80806873  0.24210295  0.90470199    -0.76060
Al1569     Al  0.77581784  0.24753381  0.84297926     1.90120
O1570       O  0.79824933  0.20120470  0.85411402    -0.75130
O1571       O  0.85777086  0.27790628  0.87115784    -0.74980
O1572       O  0.85071918  0.23362449  0.82529793    -0.80640
O1573       O  0.86884800  0.28917419  0.81576379    -0.78850
O1574       O  0.81073722  0.25296156  0.83286786    -1.14980
O1575       O  0.82942305  0.30591739  0.80738897    -0.74180
C1576       C  0.80648166  0.30691574  0.81265572     0.96540
C1577       C  0.77332196  0.19261042  0.86698776     0.92940
Al1578     Al  0.82762314  0.23981834  0.86174775     1.55560
O1579       O  0.75899572  0.22748920  0.80125748    -0.78800
C1580       C  0.87667499  0.29083129  0.84773860     0.97110
C1581       C  0.79403830  0.25535155  0.91032569     0.91990
O1582       O  0.78940837  0.26794819  0.88548482    -0.84120
O1583       O  0.69527257  0.18449392  0.56695564    -0.83580
C1584       C  0.63146317  0.23778354  0.54282006     0.95780
O1585       O  0.64640138  0.22882385  0.52727858    -0.72690
O1586       O  0.68214828  0.20869196  0.51358349    -0.76290
Al1587     Al  0.64775594  0.19639385  0.54392819     1.48980
C1588       C  0.70847079  0.22953234  0.51704289     0.91030
O1589       O  0.71879987  0.25982376  0.61231462    -0.82510
O1590       O  0.67405316  0.22621935  0.65297269    -0.76060
Al1591     Al  0.70353198  0.22159229  0.58806796     1.90120
O1592       O  0.68261622  0.26811759  0.60322146    -0.75130
O1593       O  0.62360397  0.19174587  0.62136226    -0.74980
O1594       O  0.62938469  0.23638471  0.57619619    -0.80640
O1595       O  0.60880919  0.18030868  0.56716351    -0.78850
O1596       O  0.66833581  0.21601274  0.58093884    -1.14980
O1597       O  0.64772965  0.16246579  0.55724218    -0.74180
C1598       C  0.67103090  0.16163808  0.55967656     0.96540
C1599       C  0.70788621  0.27643962  0.61483357     0.92940
Al1600     Al  0.65325069  0.22954343  0.61136166     1.55560
O1601       O  0.71750184  0.24237850  0.54597344    -0.78800
C1602       C  0.60302258  0.17991421  0.59972882     0.97110
C1603       C  0.68834651  0.21288371  0.65617347     0.91990
O1604       O  0.69199531  0.20084873  0.62998817    -0.84120
O1605       O  0.69020220  0.47772006  0.48827002    -0.83580
C1606       C  0.73710904  0.09398082  0.95851113     0.95780
O1607       O  0.72662060  0.06961572  0.94359545    -0.72690
O1608       O  0.71048399  0.01421708  0.93344292    -0.76290
Al1609     Al  0.69749383  0.03529042  0.96425376     1.48980
C1610       C  0.73173352  0.00926980  0.93583677     0.91030
O1611       O  0.76706695  0.03423943  0.52892926    -0.82510
O1612       O  0.73462719  0.04562561  0.56997288    -0.76060
Al1613     Al  0.72752268  0.00875235  0.50730576     1.90120
O1614       O  0.77300240  0.07690966  0.51561835    -0.75130
O1615       O  0.69792183  0.05950926  0.54129970    -0.74980
O1616       O  0.73901003  0.09586159  0.99177832    -0.80640
O1617       O  0.68100683  0.05682771  0.98822904    -0.78850
O1618       O  0.72014798  0.03728074  0.49942961    -1.14980
O1619       O  0.66572470  0.50076263  0.98139623    -0.74180
C1620       C  0.66643876  0.47746020  0.98194805     0.96540
C1621       C  0.78270044  0.06208236  0.52970851     0.92940
Al1622     Al  0.73500730  0.06742936  0.52768354     1.55560
O1623       O  0.74596742  0.51419071  0.96400082    -0.78800
C1624       C  0.68256642  0.06431679  0.52027066     0.97110
C1625       C  0.72135011  0.01825012  0.57565879     0.91990
O1626       O  0.70874899  0.50066162  0.55098272    -0.84120
O1627       O  0.78574751  0.48856599  0.73477757    -0.83580
C1628       C  0.73616453  0.37192287  0.70877225     0.95780
O1629       O  0.74531982  0.39613754  0.69395818    -0.72690
O1630       O  0.76441363  0.45170477  0.68087686    -0.76290
Al1631     Al  0.77644886  0.43015954  0.71230906     1.48980
C1632       C  0.74303579  0.45638184  0.68297307     0.91030
O1633       O  0.70928755  0.43441582  0.77631932    -0.82510
O1634       O  0.74184188  0.42383135  0.81912203    -0.76060
Al1635     Al  0.74819804  0.45853885  0.75416414     1.90120
O1636       O  0.70201287  0.39048599  0.76683512    -0.75130
O1637       O  0.77804204  0.40901452  0.79032409    -0.74980
O1638       O  0.73588924  0.37051288  0.74222846    -0.80640
O1639       O  0.79258246  0.40819346  0.73692598    -0.78850
O1640       O  0.75503604  0.42973134  0.74795100    -1.14980
O1641       O  0.80940300  0.46463715  0.72722476    -0.74180
C1642       C  0.80928059  0.48828851  0.72847811     0.96540
C1643       C  0.69302029  0.40677740  0.77845654     0.92940
Al1644     Al  0.74057598  0.40042361  0.77761039     1.55560
O1645       O  0.72883320  0.45143052  0.71100679    -0.78800
C1646       C  0.79199675  0.40227668  0.76948370     0.97110
C1647       C  0.75449435  0.45145825  0.82282669     0.91990
O1648       O  0.76729721  0.46782658  0.79731535    -0.84120
O1649       O  0.98221508  0.27647221  0.90401499    -0.83580
C1650       C  0.59907090  0.34302966  0.87599227     0.95780
O1651       O  0.57461710  0.32747161  0.86166192    -0.72690
O1652       O  0.51925561  0.29030963  0.85002364    -0.76290
Al1653     Al  0.54076326  0.32500357  0.87967997     1.48980
C1654       C  0.51400882  0.26423639  0.85394532     0.91030
O1655       O  0.53746651  0.25650120  0.94799153    -0.82510
O1656       O  0.54854509  0.30099093  0.98823478    -0.76060
Al1657     Al  0.51253973  0.27012088  0.92482950     1.90120
O1658       O  0.58127962  0.29329668  0.93686429    -0.75130
O1659       O  0.56299967  0.35136983  0.95653320    -0.74980
O1660       O  0.60086735  0.34587797  0.90931345    -0.80640
O1661       O  0.56298181  0.36391828  0.90185433    -0.78850
O1662       O  0.54161970  0.30553634  0.91649232    -1.14980
O1663       O  0.00642661  0.32384490  0.89468611    -0.74180
C1664       C  0.98267502  0.30004455  0.89621854     0.96540
C1665       C  0.56528862  0.26818663  0.94931384     0.92940
Al1666     Al  0.57138312  0.32193773  0.94576304     1.55560
O1667       O  0.51795771  0.25547669  0.88294793    -0.78800
C1668       C  0.56919583  0.37090177  0.93402380     0.97110
C1669       C  0.52088805  0.28602980  0.99231953     0.91990
O1670       O  0.50433813  0.28228306  0.96694778    -0.84120
O1671       O  0.49397554  0.19061865  0.65208004    -0.83580
C1672       C  0.87623725  0.12444211  0.62897455     0.95780
O1673       O  0.89993767  0.13917766  0.61290209    -0.72690
O1674       O  0.95541821  0.17645131  0.59896957    -0.76290
Al1675     Al  0.93450930  0.14213998  0.62955352     1.48980
C1676       C  0.96161948  0.20291933  0.60269034     0.91030
O1677       O  0.94164670  0.21283139  0.69750726    -0.82510
O1678       O  0.93091353  0.16891458  0.73834208    -0.76060
Al1679     Al  0.96489586  0.19798163  0.67348731     1.90120
O1680       O  0.89700786  0.17659620  0.68826945    -0.75130
O1681       O  0.91510862  0.11845090  0.70754695    -0.74980
O1682       O  0.87579361  0.12323586  0.66236119    -0.80640
O1683       O  0.91263250  0.10356870  0.65354473    -0.78850
O1684       O  0.93525431  0.16272119  0.66633889    -1.14980
O1685       O  0.96939093  0.14332831  0.64223586    -0.74180
C1686       C  0.49331527  0.16700589  0.64407434     0.96540
C1687       C  0.91399178  0.20194566  0.69951613     0.92940
Al1688     Al  0.90661282  0.14763579  0.69698230     1.55560
O1689       O  0.95817560  0.21191943  0.63178198    -0.78800
C1690       C  0.90702955  0.09788824  0.68611991     0.97110
C1691       C  0.95868686  0.18299021  0.74143743     0.91990
O1692       O  0.97418976  0.18629689  0.71516898    -0.84120
C1693       C  0.97261926  0.21808040  0.83108553    -0.15130
C1694       C  0.50045626  0.24274428  0.82591133     0.07020
C1695       C  0.51521952  0.24610394  0.79455529    -0.15130
C1696       C  0.50217470  0.22517296  0.76832512    -0.15130
C1697       C  0.97367513  0.20095582  0.77254656     0.07020
C1698       C  0.95905055  0.19750470  0.80430808    -0.15130
H1699       H  0.96106902  0.21527680  0.85549670     0.11010
H1700       H  0.53679602  0.26485253  0.79041490     0.11010
H1701       H  0.51400394  0.22881262  0.74397493     0.11010
H1702       H  0.93702989  0.17942727  0.80806399     0.11010
C1703       C  0.00655656  0.27538659  0.55583090    -0.15130
C1704       C  0.50745598  0.26593545  0.52197149     0.07020
C1705       C  0.49244523  0.23581263  0.51458931    -0.15130
C1706       C  0.97718533  0.21533751  0.54054804    -0.15130
C1707       C  0.97590869  0.22452175  0.57441180     0.07020
C1708       C  0.99067330  0.25477314  0.58189031    -0.15130
H1709       H  0.01751717  0.29846356  0.56187301     0.11010
H1710       H  0.49243003  0.22790993  0.98847953     0.11010
H1711       H  0.96633897  0.19233701  0.53407043     0.11010
H1712       H  0.99036566  0.26250597  0.60804807     0.11010
C1713       C  0.64472046  0.36423143  0.79378594    -0.15130
C1714       C  0.66669150  0.39298305  0.80091946     0.07020
C1715       C  0.66697712  0.40505057  0.83390245    -0.15130
C1716       C  0.64606560  0.38837223  0.85948542    -0.15130
C1717       C  0.62424077  0.35952501  0.85222234     0.07020
C1718       C  0.62363928  0.34785537  0.81892610    -0.15130
H1719       H  0.64440998  0.35410162  0.76902151     0.11010
H1720       H  0.68420856  0.42683846  0.84053680     0.11010
H1721       H  0.64666173  0.39812893  0.88460629     0.11010
H1722       H  0.60677908  0.32582481  0.81234168     0.11010
C1723       C  0.84549673  0.04027856  0.73995242    -0.15130
C1724       C  0.83632514  0.01534773  0.71963085     0.07020
C1725       C  0.85249358  0.01663443  0.68968230    -0.15130
C1726       C  0.87667088  0.04315557  0.67905822    -0.15130
C1727       C  0.88559219  0.06838442  0.69911591     0.07020
C1728       C  0.87018947  0.06632839  0.73025374    -0.15130
H1729       H  0.83337330  0.03966386  0.76311087     0.11010
H1730       H  0.84549435  0.49742281  0.67357279     0.11010
H1731       H  0.88773847  0.04413295  0.65482339     0.11010
H1732       H  0.87609758  0.08536502  0.74627092     0.11010
C1733       C  0.70279271  0.48226497  0.62459188    -0.15130
C1734       C  0.72619287  0.50611763  0.60785720     0.07020
C1735       C  0.75485692  0.01281499  0.61543760    -0.15130
C1736       C  0.76020327  0.49540921  0.63819374    -0.15130
C1737       C  0.73688120  0.47154874  0.65490560     0.07020
C1738       C  0.70815637  0.46559302  0.64873456    -0.15130
H1739       H  0.68045024  0.47614777  0.61827897     0.11010
H1740       H  0.77307124  0.03066418  0.60223866     0.11010
H1741       H  0.78258627  0.50103146  0.64343276     0.11010
H1742       H  0.68987294  0.44768068  0.66208552     0.11010
C1743       C  0.75089621  0.47741837  0.91425479    -0.15130
C1744       C  0.73839137  0.49498394  0.90701505     0.07020
C1745       C  0.73080307  0.49717927  0.87256677    -0.15130
C1746       C  0.73626434  0.48276695  0.84574758    -0.15130
C1747       C  0.74857934  0.46511373  0.85285383     0.07020
C1748       C  0.75560918  0.46222744  0.88734941    -0.15130
H1749       H  0.75650164  0.97498485  0.94085397     0.11010
H1750       H  0.72090833  0.51023648  0.86633298     0.11010
H1751       H  0.73050660  0.48518473  0.81922035     0.11010
H1752       H  0.76516954  0.44883143  0.89331236     0.11010
C1753       C  0.81604278  0.10634788  0.56454099    -0.15130
C1754       C  0.80834468  0.07788989  0.55357877     0.07020
C1755       C  0.82234676  0.06434286  0.56963605    -0.15130
C1756       C  0.84314331  0.07883260  0.59628406    -0.15130
C1757       C  0.85007894  0.10693188  0.60739702     0.07020
C1758       C  0.83662912  0.12063422  0.59099176    -0.15130
H1759       H  0.80567244  0.11758835  0.55315714     0.11010
H1760       H  0.81685983  0.04248903  0.56205753     0.11010
H1761       H  0.85436727  0.06843074  0.60768469     0.11010
H1762       H  0.84257450  0.14272385  0.59811716     0.11010
C1763       C  0.63617877  0.44505912  0.93394299    -0.15130
C1764       C  0.64028449  0.45089011  0.97001548     0.07020
C1765       C  0.61813696  0.43302227  0.99340266    -0.15130
C1766       C  0.59297772  0.40827905  0.98101183    -0.15130
C1767       C  0.58953722  0.40125893  0.94501197     0.07020
C1768       C  0.61092839  0.42049914  0.92147334    -0.15130
H1769       H  0.65285545  0.45925489  0.91548204     0.11010
H1770       H  0.62063151  0.43781839  0.52119011     0.11010
H1771       H  0.57695198  0.39369068  0.99981021     0.11010
H1772       H  0.60918122  0.41546641  0.89377040     0.11010
C1773       C  0.54767291  0.15302952  0.59567198    -0.15130
C1774       C  0.57377796  0.17274019  0.61261493     0.07020
C1775       C  0.57268434  0.18917186  0.64108100    -0.15130
C1776       C  0.54649481  0.18693250  0.65153367    -0.15130
C1777       C  0.52048909  0.16746394  0.63466063     0.07020
C1778       C  0.52103340  0.14998215  0.60714326    -0.15130
H1779       H  0.54794388  0.14045641  0.57348391     0.11010
H1780       H  0.59242440  0.20501551  0.65446712     0.11010
H1781       H  0.54660194  0.20066069  0.67262815     0.11010
H1782       H  0.00104604  0.13498789  0.59351240     0.11010
C1783       C  0.56767786  0.24140624  0.00250604    -0.15130
C1784       C  0.58007014  0.25609363  0.97085844     0.07020
C1785       C  0.60964979  0.26551626  0.96422223    -0.15130
C1786       C  0.62649866  0.26071137  0.98855104    -0.15130
C1787       C  0.61444662  0.24673834  0.52051600     0.07020
C1788       C  0.58477527  0.23687390  0.52723757    -0.15130
H1789       H  0.54519290  0.23454873  0.00878628     0.11010
H1790       H  0.62002793  0.27739832  0.94046402     0.11010
H1791       H  0.64912709  0.26792766  0.98234357     0.11010
H1792       H  0.57470617  0.22513682  0.55117851     0.11010
C1793       C  0.71768458  0.32643467  0.62643059    -0.15130
C1794       C  0.72108534  0.30297374  0.63681335     0.07020
C1795       C  0.72898710  0.30177302  0.67180604    -0.15130
C1796       C  0.73273470  0.32341541  0.69607759    -0.15130
C1797       C  0.72876976  0.34662697  0.68559239     0.07020
C1798       C  0.72165539  0.34800612  0.65034166    -0.15130
H1799       H  0.71072647  0.32741780  0.59999803     0.11010
H1800       H  0.73067952  0.28330025  0.68081245     0.11010
H1801       H  0.73894591  0.32216175  0.72279429     0.11010
H1802       H  0.71882883  0.36578441  0.64121145     0.11010
C1803       C  0.67914505  0.12089991  0.57569209    -0.15130
C1804       C  0.66995792  0.13417561  0.55125695     0.07020
C1805       C  0.65988938  0.12123598  0.51820618    -0.15130
C1806       C  0.66129790  0.09647547  0.50864606    -0.15130
C1807       C  0.67209299  0.08397431  0.53245273     0.07020
C1808       C  0.67963033  0.09567863  0.56664762    -0.15130
H1809       H  0.68647514  0.13036674  0.60147073     0.11010
H1810       H  0.65247845  0.13126671  0.49915213     0.11010
H1811       H  0.65570257  0.08828738  0.98210195     0.11010
H1812       H  0.68804925  0.08664822  0.58576515     0.11010
C1813       C  0.85677707  0.21748743  0.73340728    -0.15130
C1814       C  0.86507809  0.22425884  0.76876888     0.07020
C1815       C  0.89178307  0.22712322  0.77977464    -0.15130
C1816       C  0.90958521  0.22300575  0.75590035    -0.15130
C1817       C  0.90068399  0.21536665  0.72086633     0.07020
C1818       C  0.87416775  0.21275358  0.70990911    -0.15130
H1819       H  0.83649097  0.21541323  0.72392875     0.11010
H1820       H  0.89895396  0.23267377  0.80668393     0.11010
H1821       H  0.92945418  0.22410631  0.76527977     0.11010
H1822       H  0.86639407  0.20597549  0.68337873     0.11010
C1823       C  0.91638722  0.30904576  0.89243513    -0.15130
C1824       C  0.90729663  0.30104283  0.85747272     0.07020
C1825       C  0.92417420  0.29424781  0.83529171    -0.15130
C1826       C  0.94829570  0.29323309  0.84850841    -0.15130
C1827       C  0.95630921  0.29969459  0.88382211     0.07020
C1828       C  0.94101294  0.30875407  0.90540400    -0.15130
H1829       H  0.90347161  0.31393879  0.91019815     0.11010
H1830       H  0.91741511  0.28751891  0.80848690     0.11010
H1831       H  0.96053194  0.28703005  0.83128213     0.11010
H1832       H  0.94756902  0.31468867  0.93243400     0.11010
C1833       C  0.77213380  0.27245203  0.95578102    -0.15130
C1834       C  0.77666745  0.25034508  0.94243201     0.07020
C1835       C  0.75819953  0.22148457  0.95351337    -0.15130
C1836       C  0.73493046  0.21460976  0.97626034    -0.15130
C1837       C  0.73025222  0.23662860  0.98926040     0.07020
C1838       C  0.74957272  0.26573518  0.97977368    -0.15130
H1839       H  0.78554574  0.29474942  0.94687341     0.11010
H1840       H  0.76060727  0.20394844  0.94293536     0.11010
H1841       H  0.72085987  0.19213008  0.98421844     0.11010
H1842       H  0.74677509  0.28312562  0.99036206     0.11010
C1843       C  0.71790724  0.22469337  0.74912339    -0.15130
C1844       C  0.74635636  0.22972679  0.74278678     0.07020
C1845       C  0.75461775  0.22775304  0.70868367    -0.15130
C1846       C  0.73483428  0.22079176  0.68127284    -0.15130
C1847       C  0.70663907  0.21660440  0.68713440     0.07020
C1848       C  0.69830603  0.21874473  0.72129047    -0.15130
H1849       H  0.71129374  0.22649112  0.77541020     0.11010
H1850       H  0.77641565  0.23168048  0.70323592     0.11010
H1851       H  0.74214083  0.21986320  0.65506284     0.11010
H1852       H  0.67691888  0.21600450  0.72633963     0.11010
C1853       C  0.78066437  0.16863850  0.91827028    -0.15130
C1854       C  0.76210880  0.16741739  0.89092705     0.07020
C1855       C  0.73465871  0.14235984  0.88696083    -0.15130
C1856       C  0.72651210  0.11843647  0.90930480    -0.15130
C1857       C  0.74527325  0.11978104  0.93651612     0.07020
C1858       C  0.77209580  0.14530338  0.94129968    -0.15130
H1859       H  0.80195970  0.18789887  0.92191969     0.11010
H1860       H  0.72010033  0.14095849  0.86610322     0.11010
H1861       H  0.70554518  0.09880379  0.90538631     0.11010
H1862       H  0.78683532  0.14676622  0.96197669     0.11010
C1863       C  0.79239861  0.34412398  0.82549412    -0.15130
C1864       C  0.80663480  0.33398076  0.80393596     0.07020
C1865       C  0.81982035  0.34901182  0.77270240    -0.15130
C1866       C  0.81693260  0.37273090  0.76195594    -0.15130
C1867       C  0.80168905  0.38229554  0.78297649     0.07020
C1868       C  0.79048492  0.36837525  0.81551577    -0.15130
H1869       H  0.78229525  0.33295944  0.84972159     0.11010
H1870       H  0.83089395  0.34133492  0.75565258     0.11010
H1871       H  0.82544256  0.38269286  0.73670592     0.11010
H1872       H  0.77838285  0.37493534  0.83243204     0.11490
O1873       O  0.78314544  0.78452575  0.32314887    -0.83580
C1874       C  0.84751395  0.73189623  0.29211354     0.95780
O1875       O  0.83097782  0.73954185  0.27788939    -0.72690
O1876       O  0.79426497  0.75823163  0.26646310    -0.76290
Al1877     Al  0.82943798  0.77188685  0.29470401     1.48980
C1878       C  0.76776004  0.73858648  0.27144422     0.91030
O1879       O  0.76182123  0.70881711  0.36552906    -0.82510
O1880       O  0.80806873  0.74210295  0.40470200    -0.76060
Al1881     Al  0.77581784  0.74753381  0.34297927     1.90120
O1882       O  0.79824933  0.70120470  0.35411403    -0.75130
O1883       O  0.85777085  0.77790628  0.37115786    -0.74980
O1884       O  0.85071918  0.73362450  0.32529794    -0.80640
O1885       O  0.86884800  0.78917419  0.31576381    -0.78850
O1886       O  0.81073722  0.75296156  0.33286788    -1.14980
O1887       O  0.82942305  0.80591739  0.30738899    -0.74180
C1888       C  0.80648165  0.80691574  0.31265572     0.96540
C1889       C  0.77332196  0.69261042  0.36698777     0.92940
Al1890     Al  0.82762313  0.73981834  0.36174777     1.55560
O1891       O  0.75899572  0.72748920  0.30125749    -0.78800
C1892       C  0.87667499  0.79083129  0.34773862     0.97110
C1893       C  0.79403829  0.75535155  0.41032570     0.91990
O1894       O  0.78940836  0.76794819  0.38548483    -0.84120
O1895       O  0.69527258  0.68449394  0.06695566    -0.83580
C1896       C  0.63146316  0.73778354  0.04282008     0.95780
O1897       O  0.64640137  0.72882384  0.02727860    -0.72690
O1898       O  0.68214828  0.70869197  0.01358352    -0.76290
Al1899     Al  0.64775594  0.69639385  0.04392821     1.48980
C1900       C  0.70847079  0.72953236  0.01704292     0.91030
O1901       O  0.71879986  0.75982377  0.11231465    -0.82510
O1902       O  0.67405315  0.72621935  0.15297272    -0.76060
Al1903     Al  0.70353198  0.72159230  0.08806798     1.90120
O1904       O  0.68261619  0.76811759  0.10322148    -0.75130
O1905       O  0.62360397  0.69174586  0.12136228    -0.74980
O1906       O  0.62938467  0.73638470  0.07619621    -0.80640
O1907       O  0.60880919  0.68030867  0.06716352    -0.78850
O1908       O  0.66833580  0.71601275  0.08093886    -1.14980
O1909       O  0.64772966  0.66246579  0.05724221    -0.74180
C1910       C  0.67103092  0.66163809  0.05967659     0.96540
C1911       C  0.70788619  0.77643962  0.11483360     0.92940
Al1912     Al  0.65325068  0.72954343  0.11136168     1.55560
O1913       O  0.71750183  0.74237851  0.04597346    -0.78800
C1914       C  0.60302257  0.67991420  0.09972884     0.97110
C1915       C  0.68834651  0.71288372  0.15617349     0.91990
O1916       O  0.69199531  0.70084874  0.12998819    -0.84120
O1917       O  0.69020221  0.97772007  0.98827003    -0.83580
C1918       C  0.73710904  0.59398081  0.45851113     0.95780
O1919       O  0.72662059  0.56961571  0.44359545    -0.72690
O1920       O  0.71048398  0.51421706  0.43344292    -0.76290
Al1921     Al  0.69749383  0.53529042  0.46425377     1.48980
C1922       C  0.73173351  0.50926979  0.43583677     0.91030
O1923       O  0.76706697  0.53423943  0.02892922    -0.82510
O1924       O  0.73462722  0.54562560  0.06997286    -0.76060
Al1925     Al  0.72752270  0.50875234  0.00730573     1.90120
O1926       O  0.77300241  0.57690965  0.01561831    -0.75130
O1927       O  0.69792185  0.55950926  0.04129973    -0.74980
O1928       O  0.73901004  0.59586159  0.49177831    -0.80640
O1929       O  0.68100684  0.55682771  0.48822906    -0.78850
O1930       O  0.72014798  0.53728073  0.99942960    -1.14980
O1931       O  0.66572471  0.00076266  0.48139617    -0.74180
C1932       C  0.66643876  0.97746022  0.48194804     0.96540
C1933       C  0.78270046  0.56208236  0.02970847     0.92940
Al1934     Al  0.73500732  0.56742935  0.02768353     1.55560
O1935       O  0.74596742  0.01419071  0.46400086    -0.78800
C1936       C  0.68256644  0.56431679  0.02027070     0.97110
C1937       C  0.72135014  0.51825012  0.07565878     0.91990
O1938       O  0.70874899  0.00066162  0.05098272    -0.84120
O1939       O  0.78574755  0.98856601  0.23477758    -0.83580
C1940       C  0.73616448  0.87192287  0.20877229     0.95780
O1941       O  0.74531977  0.89613754  0.19395821    -0.72690
O1942       O  0.76441360  0.95170476  0.18087688    -0.76290
Al1943     Al  0.77644884  0.93015954  0.21230906     1.48980
C1944       C  0.74303577  0.95638186  0.18297310     0.91030
O1945       O  0.70928759  0.93441588  0.27631938    -0.82510
O1946       O  0.74184193  0.92383139  0.31912207    -0.76060
Al1947     Al  0.74819808  0.95853889  0.25416418     1.90120
O1948       O  0.70201288  0.89048603  0.26683520    -0.75130
O1949       O  0.77804206  0.90901454  0.29032409    -0.74980
O1950       O  0.73588921  0.87051290  0.24222850    -0.80640
O1951       O  0.79258243  0.90819345  0.23692597    -0.78850
O1952       O  0.75503604  0.92973137  0.24795102    -1.14980
O1953       O  0.80940300  0.96463715  0.22722472    -0.74180
C1954       C  0.80928061  0.98828851  0.22847809     0.96540
C1955       C  0.69302032  0.90677746  0.27845661     0.92940
Al1956     Al  0.74057599  0.90042364  0.27761043     1.55560
O1957       O  0.72883321  0.95143057  0.21100684    -0.78800
C1958       C  0.79199674  0.90227668  0.26948368     0.97110
C1959       C  0.75449442  0.95145830  0.32282671     0.91990
O1960       O  0.76729727  0.96782662  0.29731537    -0.84120
O1961       O  0.98221507  0.77647219  0.40401504    -0.83580
C1962       C  0.59907087  0.84302970  0.37599227     0.95780
O1963       O  0.57461706  0.82747167  0.36166193    -0.72690
O1964       O  0.51925557  0.79030966  0.35002368    -0.76290
Al1965     Al  0.54076322  0.82500359  0.37968004     1.48980
C1966       C  0.51400880  0.76423642  0.35394532     0.91030
O1967       O  0.53746653  0.75650119  0.44799150    -0.82510
O1968       O  0.54854511  0.80099089  0.48823479    -0.76060
Al1969     Al  0.51253973  0.77012087  0.42482951     1.90120
O1970       O  0.58127962  0.79329668  0.43686425    -0.75130
O1971       O  0.56299967  0.85136980  0.45653327    -0.74980
O1972       O  0.60086733  0.84587799  0.40931346    -0.80640
O1973       O  0.56298177  0.86391828  0.40185442    -0.78850
O1974       O  0.54161969  0.80553634  0.41649235    -1.14980
O1975       O  0.00642657  0.82384489  0.39468623    -0.74180
C1976       C  0.98267499  0.80004453  0.39621863     0.96540
C1977       C  0.56528864  0.76818663  0.44931380     0.92940
Al1978     Al  0.57138312  0.82193771  0.44576305     1.55560
O1979       O  0.51795771  0.75547671  0.38294792    -0.78800
C1980       C  0.56919581  0.87090175  0.43402390     0.97110
C1981       C  0.52088807  0.78602976  0.49231955     0.91990
O1982       O  0.50433814  0.78228302  0.46694782    -0.84120
O1983       O  0.49397554  0.69061865  0.15208008    -0.83580
C1984       C  0.87623725  0.62444211  0.12897455     0.95780
O1985       O  0.89993768  0.63917766  0.11290209    -0.72690
O1986       O  0.95541823  0.67645131  0.09896959    -0.76290
Al1987     Al  0.93450931  0.64213998  0.12955355     1.48980
C1988       C  0.96161950  0.70291933  0.10269036     0.91030
O1989       O  0.94164670  0.71283140  0.19750727    -0.82510
O1990       O  0.93091351  0.66891460  0.23834210    -0.76060
Al1991     Al  0.96489586  0.69798163  0.17348733     1.90120
O1992       O  0.89700786  0.67659622  0.18826943    -0.75130
O1993       O  0.91510860  0.61845092  0.20754697    -0.74980
O1994       O  0.87579360  0.62323587  0.16236119    -0.80640
O1995       O  0.91263249  0.60356870  0.15354476    -0.78850
O1996       O  0.93525431  0.66272120  0.16633890    -1.14980
O1997       O  0.96939093  0.64332831  0.14223591    -0.74180
C1998       C  0.49331527  0.66700589  0.14407438     0.96540
C1999       C  0.91399177  0.70194568  0.19951612     0.92940
Al2000     Al  0.90661280  0.64763580  0.19698231     1.55560
O2001       O  0.95817560  0.71191943  0.13178199    -0.78800
C2002       C  0.90702954  0.59788825  0.18611995     0.97110
C2003       C  0.95868684  0.68299022  0.24143745     0.91990
O2004       O  0.97418974  0.68629689  0.21516901    -0.84120
C2005       C  0.97261924  0.71808043  0.33108554    -0.15130
C2006       C  0.50045622  0.74274432  0.32591133     0.07020
C2007       C  0.51521948  0.74610398  0.29455529    -0.15130
C2008       C  0.50217466  0.72517300  0.26832513    -0.15130
C2009       C  0.97367510  0.70095585  0.27254657     0.07020
C2010       C  0.95905052  0.69750473  0.30430810    -0.15130
H2011       H  0.96106899  0.71527683  0.35549672     0.11010
H2012       H  0.53679598  0.76485258  0.29041489     0.11010
H2013       H  0.51400390  0.72881265  0.24397494     0.11010
H2014       H  0.93702987  0.67942729  0.30806402     0.11010
C2015       C  0.00655657  0.77538659  0.05583091    -0.15130
C2016       C  0.50745600  0.76593544  0.02197151     0.07020
C2017       C  0.49244526  0.73581263  0.01458934    -0.15130
C2018       C  0.97718536  0.71533750  0.04054806    -0.15130
C2019       C  0.97590870  0.72452174  0.07441183     0.07020
C2020       C  0.99067331  0.75477313  0.08189032    -0.15130
H2021       H  0.01751717  0.79846355  0.06187302     0.11010
H2022       H  0.49243015  0.72790989  0.48847959     0.11010
H2023       H  0.96633901  0.69233700  0.03407046     0.11010
H2024       H  0.99036566  0.76250597  0.10804809     0.11010
C2025       C  0.64472043  0.86423154  0.29378594    -0.15130
C2026       C  0.66669151  0.89298313  0.30091950     0.07020
C2027       C  0.66697714  0.90505063  0.33390252    -0.15130
C2028       C  0.64606559  0.88837228  0.35948547    -0.15130
C2029       C  0.62424073  0.85952507  0.35222234     0.07020
C2030       C  0.62363923  0.84785547  0.31892607    -0.15130
H2031       H  0.64440995  0.85410176  0.26902148     0.11010
H2032       H  0.68420860  0.92683849  0.34053691     0.11010
H2033       H  0.64666173  0.89812895  0.38460636     0.11010
H2034       H  0.60677900  0.82582493  0.31234161     0.11010
C2035       C  0.84549669  0.54027857  0.23995243    -0.15130
C2036       C  0.83632514  0.51534774  0.21963089     0.07020
C2037       C  0.85249361  0.51663443  0.18968236    -0.15130
C2038       C  0.87667091  0.54315557  0.17905829    -0.15130
C2039       C  0.88559217  0.56838443  0.19911594     0.07020
C2040       C  0.87018943  0.56632841  0.23025375    -0.15130
H2041       H  0.83337324  0.53966388  0.26311086     0.11010
H2042       H  0.84549428  0.99742283  0.17357265     0.11010
H2043       H  0.88773851  0.54413295  0.15482347     0.11010
H2044       H  0.87609751  0.58536504  0.24627091     0.11010
C2045       C  0.70279270  0.98226503  0.12459196    -0.15130
C2046       C  0.72619287  0.00611763  0.10785720     0.07020
C2047       C  0.75485695  0.51281497  0.11543757    -0.15130
C2048       C  0.76020325  0.99540916  0.13819369    -0.15130
C2049       C  0.73688118  0.97154875  0.15490563     0.07020
C2050       C  0.70815636  0.96559309  0.14873465    -0.15130
H2051       H  0.68045023  0.97614787  0.11827910     0.11010
H2052       H  0.77307127  0.53066415  0.10223861     0.11010
H2053       H  0.78258625  0.00103138  0.14343266     0.11010
H2054       H  0.68987293  0.94768079  0.16208567     0.11010
C2055       C  0.75089631  0.97741845  0.41425481    -0.15130
C2056       C  0.73839143  0.99498398  0.40701507     0.07020
C2057       C  0.73080311  0.99717929  0.37256679    -0.15130
C2058       C  0.73626439  0.98276698  0.34574761    -0.15130
C2059       C  0.74857943  0.96511379  0.35285385     0.07020
C2060       C  0.75560929  0.96222752  0.38734943    -0.15130
H2061       H  0.75650157  0.47498479  0.44085398     0.11010
H2062       H  0.72090834  0.01023648  0.36633301     0.11010
H2063       H  0.73050663  0.98518473  0.31922038     0.11010
H2064       H  0.76516969  0.94883154  0.39331237     0.11010
C2065       C  0.81604279  0.60634788  0.06454096    -0.15130
C2066       C  0.80834470  0.57788989  0.05357874     0.07020
C2067       C  0.82234678  0.56434287  0.06963601    -0.15130
C2068       C  0.84314333  0.57883261  0.09628403    -0.15130
C2069       C  0.85007894  0.60693189  0.10739700     0.07020
C2070       C  0.83662912  0.62063422  0.09099174    -0.15130
H2071       H  0.80567245  0.61758834  0.05315711     0.11010
H2072       H  0.81685987  0.54248904  0.06205749     0.11010
H2073       H  0.85436729  0.56843075  0.10768466     0.11010
H2074       H  0.84257449  0.64272384  0.09811715     0.11010
C2075       C  0.63617865  0.94505919  0.43394301    -0.15130
C2076       C  0.64028448  0.95089012  0.47001551     0.07020
C2077       C  0.61813706  0.93302221  0.49340276    -0.15130
C2078       C  0.59297781  0.90827898  0.48101197    -0.15130
C2079       C  0.58953720  0.90125891  0.44501208     0.07020
C2080       C  0.61092827  0.92049918  0.42147340    -0.15130
H2081       H  0.65285525  0.95925502  0.41548201     0.11010
H2082       H  0.62063157  0.93781836  0.02119014     0.11010
H2083       H  0.57695214  0.89369056  0.49981038     0.11010
H2084       H  0.60918103  0.91546650  0.39377046     0.11010
C2085       C  0.54767290  0.65302950  0.09567202    -0.15130
C2086       C  0.57377796  0.67274019  0.11261495     0.07020
C2087       C  0.57268435  0.68917188  0.14108101    -0.15130
C2088       C  0.54649481  0.68693252  0.15153368    -0.15130
C2089       C  0.52048909  0.66746393  0.13466067     0.07020
C2090       C  0.52103340  0.64998214  0.10714331    -0.15130
H2091       H  0.54794386  0.64045638  0.07348396     0.11010
H2092       H  0.59242441  0.70501554  0.15446711     0.11010
H2093       H  0.54660196  0.70066071  0.17262815     0.11010
H2094       H  0.00104603  0.63498786  0.09351247     0.11010
C2095       C  0.56767787  0.74140620  0.50250597    -0.15130
C2096       C  0.58007017  0.75609364  0.47085840     0.07020
C2097       C  0.60964984  0.76551632  0.46422225    -0.15130
C2098       C  0.62649870  0.76071142  0.48855107    -0.15130
C2099       C  0.61444661  0.74673834  0.02051602     0.07020
C2100       C  0.58477525  0.73687388  0.02723756    -0.15130
H2101       H  0.54519289  0.73454865  0.50878618     0.11010
H2102       H  0.62002800  0.77739842  0.44046406     0.11010
H2103       H  0.64912715  0.76792775  0.48234364     0.11010
H2104       H  0.57470615  0.72513678  0.05117849     0.11010
C2105       C  0.71768452  0.82643466  0.12643064    -0.15130
C2106       C  0.72108531  0.80297374  0.13681339     0.07020
C2107       C  0.72898708  0.80177303  0.17180607    -0.15130
C2108       C  0.73273467  0.82341542  0.19607762    -0.15130
C2109       C  0.72876971  0.84662697  0.18559243     0.07020
C2110       C  0.72165532  0.84800610  0.15034171    -0.15130
H2111       H  0.71072639  0.82741779  0.09999809     0.11010
H2112       H  0.73067952  0.78330028  0.18081247     0.11010
H2113       H  0.73894590  0.82216177  0.22279432     0.11010
H2114       H  0.71882875  0.86578439  0.14121151     0.11010
C2115       C  0.67914512  0.62089996  0.07569211    -0.15130
C2116       C  0.66995794  0.63417562  0.05125699     0.07020
C2117       C  0.65988936  0.62123596  0.01820624    -0.15130
C2118       C  0.66129788  0.59647545  0.00864612    -0.15130
C2119       C  0.67209302  0.58397432  0.03245278     0.07020
C2120       C  0.67963041  0.59567868  0.06664764    -0.15130
H2121       H  0.68647525  0.63036682  0.10147073     0.11010
H2122       H  0.65247839  0.63126665  0.99915220     0.11010
H2123       H  0.65570255  0.58828737  0.48210198     0.11010
H2124       H  0.68804937  0.58664830  0.08576516     0.11010
C2125       C  0.85677707  0.71748745  0.23340729    -0.15130
C2126       C  0.86507809  0.72425884  0.26876889     0.07020
C2127       C  0.89178307  0.72712322  0.27977465    -0.15130
C2128       C  0.90958520  0.72300575  0.25590035    -0.15130
C2129       C  0.90068399  0.71536666  0.22086633     0.07020
C2130       C  0.87416775  0.71275360  0.20990911    -0.15130
H2131       H  0.83649097  0.71541325  0.22392876     0.11010
H2132       H  0.89895396  0.73267376  0.30668394     0.11010
H2133       H  0.92945417  0.72410632  0.26527976     0.11010
H2134       H  0.86639407  0.70597551  0.18337873     0.11010
C2135       C  0.91638721  0.80904578  0.39243516    -0.15130
C2136       C  0.90729662  0.80104283  0.35747275     0.07020
C2137       C  0.92417418  0.79424778  0.33529177    -0.15130
C2138       C  0.94829566  0.79323304  0.34850850    -0.15130
C2139       C  0.95630917  0.79969456  0.38382219     0.07020
C2140       C  0.94101292  0.80875408  0.40540405    -0.15130
H2141       H  0.90347161  0.81393884  0.41019815     0.11010
H2142       H  0.91741509  0.78751885  0.30848696     0.11010
H2143       H  0.96053189  0.78702997  0.33128223     0.11010
H2144       H  0.94756901  0.81468871  0.43243404     0.11010
C2145       C  0.77213381  0.77245203  0.45578104    -0.15130
C2146       C  0.77666744  0.75034508  0.44243203     0.07020
C2147       C  0.75819951  0.72148457  0.45351337    -0.15130
C2148       C  0.73493044  0.71460976  0.47626034    -0.15130
C2149       C  0.73025222  0.73662860  0.48926042     0.07020
C2150       C  0.74957272  0.76573518  0.47977371    -0.15130
H2151       H  0.78554575  0.79474942  0.44687344     0.11010
H2152       H  0.76060724  0.70394844  0.44293535     0.11010
H2153       H  0.72085985  0.69213008  0.48421843     0.11010
H2154       H  0.74677510  0.78312562  0.49036209     0.11010
C2155       C  0.71790724  0.72469339  0.24912341    -0.15130
C2156       C  0.74635636  0.72972679  0.24278679     0.07020
C2157       C  0.75461775  0.72775303  0.20868369    -0.15130
C2158       C  0.73483427  0.72079175  0.18127286    -0.15130
C2159       C  0.70663907  0.71660440  0.18713442     0.07020
C2160       C  0.69830603  0.71874475  0.22129049    -0.15130
H2161       H  0.71129375  0.72649115  0.27541022     0.11010
H2162       H  0.77641564  0.73168046  0.20323594     0.11010
H2163       H  0.74214081  0.71986318  0.15506286     0.11010
H2164       H  0.67691889  0.71600454  0.22633965     0.11010
C2165       C  0.78066436  0.66863851  0.41827031    -0.15130
C2166       C  0.76210879  0.66741739  0.39092705     0.07020
C2167       C  0.73465872  0.64235982  0.38696081    -0.15130
C2168       C  0.72651211  0.61843645  0.40930477    -0.15130
C2169       C  0.74527325  0.61978103  0.43651611     0.07020
C2170       C  0.77209579  0.64530338  0.44129970    -0.15130
H2171       H  0.80195967  0.68789888  0.42191973     0.11010
H2172       H  0.72010035  0.64095847  0.36610318     0.11010
H2173       H  0.70554520  0.59880376  0.40538626     0.11010
H2174       H  0.78683529  0.64676623  0.46197672     0.11010
C2175       C  0.79239861  0.84412398  0.32549412    -0.15130
C2176       C  0.80663479  0.83398076  0.30393595     0.07020
C2177       C  0.81982032  0.84901180  0.27270238    -0.15130
C2178       C  0.81693257  0.87273088  0.26195592    -0.15130
C2179       C  0.80168903  0.88229553  0.28297647     0.07020
C2180       C  0.79048492  0.86837526  0.31551576    -0.15130
H2181       H  0.78229526  0.83295946  0.34972160     0.11010
H2182       H  0.83089391  0.84133489  0.25565256     0.11010
H2183       H  0.82544252  0.88269282  0.23670589     0.11010
H2184       H  0.77838286  0.87493535  0.33243204     0.11490
O2185       O  0.78314544  0.78452576  0.82314886    -0.83580
C2186       C  0.84751394  0.73189622  0.79211353     0.95780
O2187       O  0.83097782  0.73954185  0.77788938    -0.72690
O2188       O  0.79426496  0.75823164  0.76646310    -0.76290
Al2189     Al  0.82943798  0.77188686  0.79470400     1.48980
C2190       C  0.76776004  0.73858648  0.77144421     0.91030
O2191       O  0.76182122  0.70881712  0.86552906    -0.82510
O2192       O  0.80806872  0.74210295  0.90470199    -0.76060
Al2193     Al  0.77581783  0.74753381  0.84297926     1.90120
O2194       O  0.79824932  0.70120470  0.85411403    -0.75130
O2195       O  0.85777085  0.77790628  0.87115785    -0.74980
O2196       O  0.85071917  0.73362449  0.82529794    -0.80640
O2197       O  0.86884799  0.78917419  0.81576380    -0.78850
O2198       O  0.81073721  0.75296156  0.83286787    -1.14980
O2199       O  0.82942304  0.80591740  0.80738898    -0.74180
C2200       C  0.80648165  0.80691575  0.81265572     0.96540
C2201       C  0.77332195  0.69261043  0.86698777     0.92940
Al2202     Al  0.82762312  0.73981835  0.86174776     1.55560
O2203       O  0.75899571  0.72748920  0.80125748    -0.78800
C2204       C  0.87667499  0.79083129  0.84773861     0.97110
C2205       C  0.79403829  0.75535155  0.91032570     0.91990
O2206       O  0.78940836  0.76794820  0.88548483    -0.84120
O2207       O  0.69527257  0.68449392  0.56695566    -0.83580
C2208       C  0.63146316  0.73778353  0.54282006     0.95780
O2209       O  0.64640137  0.72882383  0.52727859    -0.72690
O2210       O  0.68214827  0.70869195  0.51358351    -0.76290
Al2211     Al  0.64775593  0.69639384  0.54392820     1.48980
C2212       C  0.70847079  0.72953233  0.51704291     0.91030
O2213       O  0.71879986  0.75982376  0.61231463    -0.82510
O2214       O  0.67405315  0.72621934  0.65297270    -0.76060
Al2215     Al  0.70353197  0.72159228  0.58806798     1.90120
O2216       O  0.68261620  0.76811758  0.60322146    -0.75130
O2217       O  0.62360396  0.69174586  0.62136227    -0.74980
O2218       O  0.62938468  0.73638470  0.57619619    -0.80640
O2219       O  0.60880918  0.68030867  0.56716351    -0.78850
O2220       O  0.66833580  0.71601274  0.58093885    -1.14980
O2221       O  0.64772965  0.66246577  0.55724220    -0.74180
C2222       C  0.67103090  0.66163807  0.55967659     0.96540
C2223       C  0.70788619  0.77643961  0.61483358     0.92940
Al2224     Al  0.65325068  0.72954343  0.61136166     1.55560
O2225       O  0.71750183  0.74237849  0.54597346    -0.78800
C2226       C  0.60302256  0.67991420  0.59972883     0.97110
C2227       C  0.68834650  0.71288371  0.65617349     0.91990
O2228       O  0.69199530  0.70084872  0.62998819    -0.84120
O2229       O  0.69020220  0.97772008  0.48827003    -0.83580
C2230       C  0.73710904  0.59398082  0.95851113     0.95780
O2231       O  0.72662058  0.56961571  0.94359545    -0.72690
O2232       O  0.71048397  0.51421707  0.93344292    -0.76290
Al2233     Al  0.69749382  0.53529042  0.96425377     1.48980
C2234       C  0.73173351  0.50926980  0.93583676     0.91030
O2235       O  0.76706697  0.53423942  0.52892923    -0.82510
O2236       O  0.73462722  0.54562560  0.56997287    -0.76060
Al2237     Al  0.72752269  0.50875234  0.50730574     1.90120
O2238       O  0.77300241  0.57690964  0.51561831    -0.75130
O2239       O  0.69792186  0.55950926  0.54129972    -0.74980
O2240       O  0.73901003  0.59586159  0.99177831    -0.80640
O2241       O  0.68100683  0.55682771  0.98822906    -0.78850
O2242       O  0.72014798  0.53728072  0.49942961    -1.14980
O2243       O  0.66572470  0.00076264  0.98139621    -0.74180
C2244       C  0.66643876  0.97746021  0.98194805     0.96540
C2245       C  0.78270046  0.56208235  0.52970847     0.92940
Al2246     Al  0.73500732  0.56742935  0.52768353     1.55560
O2247       O  0.74596742  0.01419071  0.96400084    -0.78800
C2248       C  0.68256644  0.56431679  0.52027069     0.97110
C2249       C  0.72135014  0.51825011  0.57565878     0.91990
O2250       O  0.70874897  0.00066163  0.55098273    -0.84120
O2251       O  0.78574751  0.98856599  0.73477755    -0.83580
C2252       C  0.73616448  0.87192286  0.70877226     0.95780
O2253       O  0.74531977  0.89613753  0.69395819    -0.72690
O2254       O  0.76441359  0.95170476  0.68087685    -0.76290
Al2255     Al  0.77644883  0.93015953  0.71230904     1.48980
C2256       C  0.74303575  0.95638184  0.68297307     0.91030
O2257       O  0.70928755  0.93441585  0.77631934    -0.82510
O2258       O  0.74184189  0.92383137  0.81912204    -0.76060
Al2259     Al  0.74819804  0.95853886  0.75416415     1.90120
O2260       O  0.70201286  0.89048601  0.76683516    -0.75130
O2261       O  0.77804204  0.90901453  0.79032407    -0.74980
O2262       O  0.73588921  0.87051288  0.74222847    -0.80640
O2263       O  0.79258242  0.90819344  0.73692595    -0.78850
O2264       O  0.75503602  0.92973135  0.74795099    -1.14980
O2265       O  0.80940298  0.96463714  0.72722472    -0.74180
C2266       C  0.80928058  0.98828850  0.72847808     0.96540
C2267       C  0.69302029  0.90677743  0.77845657     0.92940
Al2268     Al  0.74057598  0.90042362  0.77761040     1.55560
O2269       O  0.72883318  0.95143054  0.71100681    -0.78800
C2270       C  0.79199673  0.90227668  0.76948367     0.97110
C2271       C  0.75449438  0.95145827  0.82282669     0.91990
O2272       O  0.76729723  0.96782660  0.79731535    -0.84120
O2273       O  0.98221506  0.77647219  0.90401504    -0.83580
C2274       C  0.59907088  0.84302968  0.87599227     0.95780
O2275       O  0.57461707  0.82747164  0.86166193    -0.72690
O2276       O  0.51925558  0.79030964  0.85002368    -0.76290
Al2277     Al  0.54076323  0.82500358  0.87968002     1.48980
C2278       C  0.51400880  0.76423640  0.85394533     0.91030
O2279       O  0.53746653  0.75650119  0.94799152    -0.82510
O2280       O  0.54854511  0.80099091  0.98823479    -0.76060
Al2281     Al  0.51253973  0.77012087  0.92482952     1.90120
O2282       O  0.58127962  0.79329668  0.93686427    -0.75130
O2283       O  0.56299967  0.85136981  0.95653325    -0.74980
O2284       O  0.60086734  0.84587798  0.90931345    -0.80640
O2285       O  0.56298178  0.86391828  0.90185439    -0.78850
O2286       O  0.54161969  0.80553634  0.91649234    -1.14980
O2287       O  0.00642657  0.82384489  0.89468623    -0.74180
C2288       C  0.98267499  0.80004453  0.89621863     0.96540
C2289       C  0.56528863  0.76818663  0.94931383     0.92940
Al2290     Al  0.57138312  0.82193772  0.94576305     1.55560
O2291       O  0.51795770  0.75547670  0.88294794    -0.78800
C2292       C  0.56919582  0.87090176  0.93402386     0.97110
C2293       C  0.52088807  0.78602978  0.99231955     0.91990
O2294       O  0.50433814  0.78228304  0.96694781    -0.84120
O2295       O  0.49397553  0.69061864  0.65208007    -0.83580
C2296       C  0.87623725  0.62444211  0.62897455     0.95780
O2297       O  0.89993768  0.63917765  0.61290210    -0.72690
O2298       O  0.95541822  0.67645131  0.59896959    -0.76290
Al2299     Al  0.93450931  0.64213998  0.62955355     1.48980
C2300       C  0.96161949  0.70291933  0.60269036     0.91030
O2301       O  0.94164669  0.71283140  0.69750726    -0.82510
O2302       O  0.93091350  0.66891460  0.73834210    -0.76060
Al2303     Al  0.96489586  0.69798164  0.67348733     1.90120
O2304       O  0.89700785  0.67659622  0.68826943    -0.75130
O2305       O  0.91510860  0.61845092  0.70754697    -0.74980
O2306       O  0.87579360  0.62323587  0.66236119    -0.80640
O2307       O  0.91263250  0.60356871  0.65354476    -0.78850
O2308       O  0.93525431  0.66272120  0.66633890    -1.14980
O2309       O  0.96939093  0.64332831  0.64223591    -0.74180
C2310       C  0.49331526  0.66700588  0.64407438     0.96540
C2311       C  0.91399177  0.70194568  0.69951612     0.92940
Al2312     Al  0.90661280  0.64763580  0.69698231     1.55560
O2313       O  0.95817560  0.71191943  0.63178199    -0.78800
C2314       C  0.90702954  0.59788825  0.68611995     0.97110
C2315       C  0.95868683  0.68299023  0.74143745     0.91990
O2316       O  0.97418974  0.68629690  0.71516901    -0.84120
C2317       C  0.97261923  0.71808044  0.83108554    -0.15130
C2318       C  0.50045623  0.74274430  0.82591134     0.07020
C2319       C  0.51521949  0.74610396  0.79455531    -0.15130
C2320       C  0.50217467  0.72517298  0.76832514    -0.15130
C2321       C  0.97367510  0.70095585  0.77254657     0.07020
C2322       C  0.95905052  0.69750473  0.80430810    -0.15130
H2323       H  0.96106899  0.71527684  0.85549671     0.11010
H2324       H  0.53679599  0.76485255  0.79041491     0.11010
H2325       H  0.51400391  0.72881263  0.74397495     0.11010
H2326       H  0.93702986  0.67942729  0.80806401     0.11010
C2327       C  0.00655656  0.77538658  0.55583091    -0.15130
C2328       C  0.50745601  0.76593543  0.52197152     0.07020
C2329       C  0.49244529  0.73581261  0.51458935    -0.15130
C2330       C  0.97718537  0.71533750  0.54054806    -0.15130
C2331       C  0.97590870  0.72452174  0.57441182     0.07020
C2332       C  0.99067330  0.75477313  0.58189032    -0.15130
H2333       H  0.01751716  0.79846355  0.56187302     0.11010
H2334       H  0.49243010  0.72790991  0.98847957     0.11010
H2335       H  0.96633901  0.69233700  0.53407046     0.11010
H2336       H  0.99036565  0.76250597  0.60804808     0.11010
C2337       C  0.64472043  0.86423148  0.79378593    -0.15130
C2338       C  0.66669150  0.89298309  0.80091948     0.07020
C2339       C  0.66697712  0.90505060  0.83390248    -0.15130
C2340       C  0.64606559  0.88837225  0.85948545    -0.15130
C2341       C  0.62424074  0.85952504  0.85222233     0.07020
C2342       C  0.62363924  0.84785542  0.81892608    -0.15130
H2343       H  0.64440995  0.85410169  0.76902149     0.11010
H2344       H  0.68420857  0.92683847  0.84053685     0.11010
H2345       H  0.64666173  0.89812894  0.88460633     0.11010
H2346       H  0.60677902  0.82582487  0.81234164     0.11010
C2347       C  0.84549670  0.54027857  0.73995244    -0.15130
C2348       C  0.83632514  0.51534774  0.71963090     0.07020
C2349       C  0.85249362  0.51663443  0.68968237    -0.15130
C2350       C  0.87667091  0.54315557  0.67905829    -0.15130
C2351       C  0.88559218  0.56838443  0.69911595     0.07020
C2352       C  0.87018943  0.56632841  0.73025375    -0.15130
H2353       H  0.83337324  0.53966388  0.76311087     0.11010
H2354       H  0.84549429  0.99742281  0.67357269     0.11010
H2355       H  0.88773852  0.54413295  0.65482348     0.11010
H2356       H  0.87609752  0.58536505  0.74627091     0.11010
C2357       C  0.70279267  0.98226498  0.62459191    -0.15130
C2358       C  0.72619284  0.00611763  0.60785720     0.07020
C2359       C  0.75485695  0.51281500  0.61543761    -0.15130
C2360       C  0.76020323  0.99540919  0.63819373    -0.15130
C2361       C  0.73688117  0.97154874  0.65490561     0.07020
C2362       C  0.70815634  0.96559303  0.64873458    -0.15130
H2363       H  0.68045020  0.97614780  0.61827901     0.11010
H2364       H  0.77307127  0.53066420  0.60223868     0.11010
H2365       H  0.78258623  0.00103144  0.64343274     0.11010
H2366       H  0.68987291  0.94768071  0.66208556     0.11010
C2367       C  0.75089626  0.97741841  0.91425479    -0.15130
C2368       C  0.73839140  0.99498396  0.90701506     0.07020
C2369       C  0.73080309  0.99717928  0.87256678    -0.15130
C2370       C  0.73626436  0.98276696  0.84574759    -0.15130
C2371       C  0.74857938  0.96511376  0.85285383     0.07020
C2372       C  0.75560924  0.96222748  0.88734941    -0.15130
H2373       H  0.75650157  0.47498480  0.94085397     0.11010
H2374       H  0.72090833  0.01023648  0.86633299     0.11010
H2375       H  0.73050660  0.98518473  0.81922037     0.11010
H2376       H  0.76516962  0.94883149  0.89331235     0.11010
C2377       C  0.81604279  0.60634787  0.56454096    -0.15130
C2378       C  0.80834470  0.57788988  0.55357875     0.07020
C2379       C  0.82234678  0.56434286  0.56963602    -0.15130
C2380       C  0.84314333  0.57883260  0.59628404    -0.15130
C2381       C  0.85007894  0.60693188  0.60739700     0.07020
C2382       C  0.83662912  0.62063421  0.59099174    -0.15130
H2383       H  0.80567245  0.61758833  0.55315711     0.11010
H2384       H  0.81685986  0.54248902  0.56205751     0.11010
H2385       H  0.85436729  0.56843074  0.60768467     0.11010
H2386       H  0.84257449  0.64272384  0.59811714     0.11010
C2387       C  0.63617870  0.94505916  0.93394301    -0.15130
C2388       C  0.64028449  0.95089011  0.97001550     0.07020
C2389       C  0.61813702  0.93302223  0.99340272    -0.15130
C2390       C  0.59297777  0.90827901  0.98101191    -0.15130
C2391       C  0.58953720  0.90125892  0.94501204     0.07020
C2392       C  0.61092832  0.92049916  0.92147338    -0.15130
H2393       H  0.65285534  0.95925496  0.91548203     0.11010
H2394       H  0.62063166  0.93781831  0.52119018     0.11010
H2395       H  0.57695206  0.89369061  0.99981031     0.11010
H2396       H  0.60918111  0.91546646  0.89377044     0.11010
C2397       C  0.54767290  0.65302948  0.59567203    -0.15130
C2398       C  0.57377795  0.67274019  0.61261493     0.07020
C2399       C  0.57268435  0.68917191  0.64108097    -0.15130
C2400       C  0.54649481  0.68693254  0.65153365    -0.15130
C2401       C  0.52048909  0.66746393  0.63466067     0.07020
C2402       C  0.52103339  0.64998212  0.60714333    -0.15130
H2403       H  0.54794385  0.64045634  0.57348400     0.11010
H2404       H  0.59242441  0.70501559  0.65446705     0.11010
H2405       H  0.54660196  0.70066075  0.67262811     0.11010
H2406       H  0.00104604  0.63498787  0.59351248     0.11010
C2407       C  0.56767786  0.74140622  0.00250601    -0.15130
C2408       C  0.58007016  0.75609364  0.97085843     0.07020
C2409       C  0.60964982  0.76551630  0.96422226    -0.15130
C2410       C  0.62649868  0.76071141  0.98855108    -0.15130
C2411       C  0.61444662  0.74673833  0.52051600     0.07020
C2412       C  0.58477525  0.73687386  0.52723753    -0.15130
H2413       H  0.54519289  0.73454868  0.00878622     0.11010
H2414       H  0.62002798  0.77739840  0.94046407     0.11010
H2415       H  0.64912713  0.76792773  0.98234364     0.11010
H2416       H  0.57470615  0.72513675  0.55117845     0.11010
C2417       C  0.71768454  0.82643465  0.62643061    -0.15130
C2418       C  0.72108531  0.80297373  0.63681336     0.07020
C2419       C  0.72898708  0.80177302  0.67180605    -0.15130
C2420       C  0.73273467  0.82341541  0.69607760    -0.15130
C2421       C  0.72876971  0.84662696  0.68559240     0.07020
C2422       C  0.72165534  0.84800610  0.65034168    -0.15130
H2423       H  0.71072642  0.82741778  0.59999805     0.11010
H2424       H  0.73067951  0.78330026  0.68081246     0.11010
H2425       H  0.73894589  0.82216175  0.72279430     0.11010
H2426       H  0.71882877  0.86578439  0.64121147     0.11010
C2427       C  0.67914510  0.62089994  0.57569211    -0.15130
C2428       C  0.66995792  0.63417560  0.55125699     0.07020
C2429       C  0.65988934  0.62123594  0.51820624    -0.15130
C2430       C  0.66129787  0.59647544  0.50864612    -0.15130
C2431       C  0.67209301  0.58397430  0.53245278     0.07020
C2432       C  0.67963040  0.59567866  0.56664764    -0.15130
H2433       H  0.68647523  0.63036679  0.60147074     0.11010
H2434       H  0.65247837  0.63126664  0.49915220     0.11010
H2435       H  0.65570256  0.58828738  0.98210199     0.11010
H2436       H  0.68804936  0.58664828  0.58576516     0.11010
C2437       C  0.85677707  0.71748745  0.73340728    -0.15130
C2438       C  0.86507808  0.72425884  0.76876889     0.07020
C2439       C  0.89178306  0.72712321  0.77977465    -0.15130
C2440       C  0.90958519  0.72300574  0.75590035    -0.15130
C2441       C  0.90068398  0.71536666  0.72086633     0.07020
C2442       C  0.87416775  0.71275360  0.70990911    -0.15130
H2443       H  0.83649096  0.71541326  0.72392875     0.11010
H2444       H  0.89895394  0.73267375  0.80668394     0.11010
H2445       H  0.92945416  0.72410630  0.76527977     0.11010
H2446       H  0.86639407  0.70597552  0.68337872     0.11010
C2447       C  0.91638721  0.80904579  0.89243515    -0.15130
C2448       C  0.90729662  0.80104282  0.85747274     0.07020
C2449       C  0.92417417  0.79424776  0.83529177    -0.15130
C2450       C  0.94829565  0.79323302  0.84850850    -0.15130
C2451       C  0.95630917  0.79969456  0.88382219     0.07020
C2452       C  0.94101292  0.80875409  0.90540404    -0.15130
H2453       H  0.90347162  0.81393885  0.91019814     0.11010
H2454       H  0.91741508  0.78751883  0.80848696     0.11010
H2455       H  0.96053188  0.78702994  0.83128223     0.11010
H2456       H  0.94756901  0.81468873  0.93243403     0.11010
C2457       C  0.77213381  0.77245204  0.95578103    -0.15130
C2458       C  0.77666744  0.75034509  0.94243203     0.07020
C2459       C  0.75819952  0.72148458  0.95351338    -0.15130
C2460       C  0.73493046  0.71460978  0.97626036    -0.15130
C2461       C  0.73025223  0.73662862  0.98926043     0.07020
C2462       C  0.74957273  0.76573520  0.97977371    -0.15130
H2463       H  0.78554575  0.79474943  0.94687343     0.11010
H2464       H  0.76060725  0.70394845  0.94293537     0.11010
H2465       H  0.72085987  0.69213009  0.98421846     0.11010
H2466       H  0.74677511  0.78312564  0.99036208     0.11010
C2467       C  0.71790723  0.72469338  0.74912341    -0.15130
C2468       C  0.74635635  0.72972679  0.74278679     0.07020
C2469       C  0.75461775  0.72775305  0.70868368    -0.15130
C2470       C  0.73483427  0.72079176  0.68127285    -0.15130
C2471       C  0.70663906  0.71660440  0.68713441     0.07020
C2472       C  0.69830602  0.71874474  0.72129049    -0.15130
H2473       H  0.71129374  0.72649113  0.77541022     0.11010
H2474       H  0.77641564  0.73168049  0.70323593     0.11010
H2475       H  0.74214082  0.71986320  0.65506285     0.11010
H2476       H  0.67691887  0.71600451  0.72633964     0.11010
C2477       C  0.78066435  0.66863851  0.91827030    -0.15130
C2478       C  0.76210879  0.66741739  0.89092706     0.07020
C2479       C  0.73465871  0.64235983  0.88696082    -0.15130
C2480       C  0.72651210  0.61843646  0.90930478    -0.15130
C2481       C  0.74527324  0.61978104  0.93651611     0.07020
C2482       C  0.77209578  0.64530338  0.94129969    -0.15130
H2483       H  0.80195967  0.68789888  0.92191972     0.11010
H2484       H  0.72010034  0.64095848  0.86610319     0.11010
H2485       H  0.70554519  0.59880377  0.90538627     0.11010
H2486       H  0.78683529  0.64676623  0.96197671     0.11010
C2487       C  0.79239861  0.84412399  0.82549411    -0.15130
C2488       C  0.80663479  0.83398077  0.80393595     0.07020
C2489       C  0.81982032  0.84901181  0.77270238    -0.15130
C2490       C  0.81693257  0.87273088  0.76195591    -0.15130
C2491       C  0.80168903  0.88229553  0.78297647     0.07020
C2492       C  0.79048492  0.86837526  0.81551575    -0.15130
H2493       H  0.78229527  0.83295947  0.84972160     0.11010
H2494       H  0.83089391  0.84133489  0.75565255     0.11010
H2495       H  0.82544251  0.88269282  0.73670588     0.11010
H2496       H  0.77838286  0.87493536  0.83243203     0.11490
loop_ 
_geom_bond_atom_site_label_1 
_geom_bond_atom_site_label_2 
_geom_bond_distance 
_geom_bond_site_symmetry_2 
_ccdc_geom_bond_type 
O1           C16   1.273       .  A
O1           Al9   1.951       .  S
C2           O12   1.275       .  A
C2            O3   1.256       .  A
C2          C254   1.484       .  S
O3           Al5   1.871       .  S
O4            C6   1.272       .  A
O4           Al5   1.945       .  S
Al5          O13   1.975       .  S
Al5          O15   1.869       .  S
Al5          O14   1.764       .  S
C6           O19   1.258       .  A
C6          C284   1.469       .  S
O7           C17   1.279       .  A
O7           Al9   1.994       .  S
O8           C21   1.271       .  A
O8          Al18   1.976       .  S
Al9          O22   1.880       .  S
Al9          O19   1.871       .  S
Al9          O14   1.763       .  S
O10          C17   1.259       .  A
O10         Al18   1.868       .  S
O11          C20   1.257       .  A
O11         Al18   1.873       .  S
O12         Al18   1.986       .  S
O13          C20   1.277       .  A
O14         Al18   1.766       .  S
O15          C16   1.257       .  A
C16         C304   1.469       .  S
C17         C294   1.475       .  S
C20         C264   1.473       .  S
C21          O22   1.252       .  A
C21         C274   1.474       .  S
O23          C38   1.275       .  A
O23         Al31   1.961       .  S
C24          O34   1.278       .  A
C24          O25   1.257       .  A
C24         C227   1.479       .  S
O25         Al27   1.868       .  S
O26          C28   1.276       .  A
O26         Al27   1.972       .  S
Al27         O35   1.998       .  S
Al27         O37   1.869       .  S
Al27         O36   1.766       .  S
C28          O41   1.258       .  A
C28         C589   1.470   1_554  S
O29          C39   1.277       .  A
O29         Al31   1.993       .  S
O30          C43   1.274       .  A
O30         Al40   1.988       .  S
Al31         O44   1.862       .  S
Al31         O41   1.877       .  S
Al31         O36   1.752       .  S
O32          C39   1.258       .  A
O32         Al40   1.870       .  S
O33          C42   1.253       .  A
O33         Al40   1.860       .  S
O34         Al40   1.995       .  S
O35          C42   1.278       .  A
O36         Al40   1.755       .  S
O37          C38   1.258       .  A
C38         C244   1.464       .  S
C39         C234   1.477       .  S
C42         C214   1.479       .  S
C43          O44   1.252       .  A
C43         C287   1.475       .  S
O45         C372   1.272       .  A
O45        Al677   1.965   1_556  S
C46          O56   1.273       .  A
C46          O47   1.257       .  A
C46         C297   1.473       .  S
O47         Al49   1.868       .  S
O48          C50   1.279       .  A
O48         Al49   1.969       .  S
Al49         O57   1.976       .  S
Al49        O683   1.874       .  S
Al49        O370   1.765       .  S
C50         O687   1.261       .  A
C50         C808   1.476   1_545  S
O51          C61   1.279       .  A
O51         Al53   2.008       .  S
O52          C65   1.274       .  A
O52         Al62   1.979       .  S
Al53        O669   1.965   1_544  S
Al53        O690   1.877       .  S
Al53        O999   1.867   1_554  S
Al53         O58   1.767   1_554  S
O54          C61   1.255       .  A
O54         Al62   1.868       .  S
O55          C64   1.255       .  A
O55         Al62   1.862       .  S
O56        Al374   1.968       .  S
O57         C376   1.275       .  A
O58         Al62   1.752   1_556  S
O58        Al361   1.765       .  S
O59          C60   1.255       .  A
O59        Al673   1.874       .  S
C60         O357   1.272       .  A
C60         C204   1.464       .  S
C61         C194   1.491       .  S
Al62        O368   1.968   1_554  S
O63         C674   1.261       .  A
O63        Al989   1.867       .  S
C64         O369   1.275   1_554  A
C64         C247   1.480       .  S
C65         O690   1.255       .  A
C65         C798   1.467       .  S
O66         C689   1.255       .  A
O66        Al677   1.877       .  S
O67          C82   1.275       .  A
O67         Al75   1.962       .  S
C68          O78   1.279       .  A
C68          O69   1.256       .  A
C68         C237   1.486       .  S
O69         Al71   1.861       .  S
O70          C72   1.276       .  A
O70         Al71   1.969       .  S
Al71         O79   1.991       .  S
Al71         O81   1.870       .  S
Al71         O80   1.764       .  S
C72          O85   1.258       .  A
C72         C177   1.470       .  S
O73          C83   1.275       .  A
O73         Al75   1.985       .  S
O74          C87   1.276       .  A
O74         Al84   1.993       .  S
Al75         O88   1.863       .  S
Al75         O85   1.873       .  S
Al75         O80   1.754       .  S
O76          C83   1.258       .  A
O76         Al84   1.877       .  S
O77          C86   1.254       .  A
O77         Al84   1.859       .  S
O78         Al84   2.001       .  S
O79          C86   1.278       .  A
O80         Al84   1.757       .  S
O81          C82   1.258       .  A
C82         C788   1.468       .  S
C83         C154   1.479       .  S
C86         C307   1.482       .  S
C87          O88   1.253       .  A
C87         C187   1.471       .  S
O89         C104   1.273       .  A
O89       Al1345   1.963       .  S
C90         O100   1.278       .  A
C90          O91   1.256       .  A
C90         C157   1.480       .  S
O91         Al93   1.861       .  S
O92          C94   1.275       .  A
O92         Al93   1.963       .  S
Al93        O101   1.978       .  S
Al93       O1351   1.876       .  S
Al93        O102   1.757       .  S
C94         O107   1.257       .  A
C94         C134   1.461       .  S
O95         C105   1.278       .  A
O95         Al97   1.998       .  S
O96         C109   1.275       .  A
O96        Al106   1.994       .  S
Al97        O110   1.863       .  S
Al97        O107   1.862       .  S
Al97       O1337   1.963   1_455  S
Al97        O102   1.758       .  S
O98         C105   1.258       .  A
O98        Al106   1.870       .  S
O99         C108   1.256       .  A
O99        Al106   1.870       .  S
O100       Al106   1.998       .  S
O101        C108   1.276       .  A
O102       Al106   1.760       .  S
O103        C104   1.257       .  A
O103      Al1341   1.876       .  S
C104        C267   1.463       .  S
C105        C224   1.483       .  S
C108        C207   1.477       .  S
C109        O110   1.251       .  A
C109        C456   1.470       .  S
O111        C126   1.272       .  A
O111      Al1367   1.947       .  S
C112        O122   1.275       .  A
C112        O113   1.255       .  A
C112        C197   1.469       .  S
O113       Al115   1.865       .  S
O114        C116   1.279       .  A
O114       Al115   1.968       .  S
Al115       O123   1.995       .  S
Al115       O125   1.876       .  S
Al115       O124   1.767       .  S
C116        O129   1.258       .  A
C116        C147   1.476       .  S
O117        C127   1.276       .  A
O117       Al119   1.987       .  S
O118        C131   1.275       .  A
O118       Al128   1.988       .  S
Al119       O132   1.860       .  S
Al119       O129   1.862       .  S
Al119      O1359   1.947       .  S
Al119       O124   1.754       .  S
O120        C127   1.258       .  A
O120       Al128   1.874       .  S
O121        C130   1.253       .  A
O121       Al128   1.859       .  S
O122       Al128   1.987       .  S
O123        C130   1.279       .  A
O124       Al128   1.757       .  S
O125       C1374   1.258       .  A
C126       O1373   1.258       .  A
C126        C217   1.470   1_655  S
C127        C257   1.474       .  S
C130        C167   1.482       .  S
C131        O132   1.251       .  A
C131        C137   1.478       .  S
C133        C138   1.400       .  A
C133       C1382   1.407       .  A
C133        H139   1.083       .  S
C134        C135   1.391       .  A
C134       C1381   1.407   1_455  A
C135        C136   1.392       .  A
C135        H140   1.084       .  S
C136       C1385   1.414   1_455  A
C136        H141   1.083       .  S
C137        C138   1.400       .  A
C137       C1384   1.414       .  A
C138        H142   1.083       .  S
C143        C148   1.403       .  A
C143       C1392   1.396       .  A
C143        H149   1.083       .  S
C144        C421   1.470   1_554  S
C144        C145   1.409   1_455  A
C144       C1391   1.396       .  A
C145       C1394   1.390       .  A
C145        H462   1.081   1_554  S
C146        C147   1.395       .  A
C146       C1393   1.390       .  A
C146        H151   1.083       .  S
C147        C148   1.416       .  A
C148        H152   1.083       .  S
H150        C457   1.081       .  S
C153        C154   1.402       .  A
C153        C158   1.395       .  A
C153        H159   1.083       .  S
C154        C155   1.409       .  A
C155        C156   1.406       .  A
C155        H160   1.082       .  S
C156        C157   1.404       .  A
C156        H161   1.082       .  S
C157        C158   1.407       .  A
C158        H162   1.084       .  S
C163        C164   1.392       .  A
C163        C168   1.392       .  A
C163        H169   1.083       .  S
C164        C706   1.468   1_545  S
C164        C165   1.409       .  A
C165        C166   1.403       .  A
C165        H794   1.083   1_545  S
C166        C167   1.401       .  A
C166        H171   1.082       .  S
C167        C168   1.415       .  A
C168        H172   1.083       .  S
H170        C789   1.083       .  S
C173        C174   1.402       .  A
C173        C178   1.401       .  A
C173        H179   1.083       .  S
C174        C689   1.467       .  S
C174        C799   1.402       .  A
C175        C798   1.402       .  A
C175        C800   1.395   1_545  A
C175        H180   1.078       .  S
C176        C177   1.400       .  A
C176        C799   1.395       .  A
C176        H181   1.084       .  S
C177        C178   1.407       .  A
C178        H182   1.084       .  S
C183        C184   1.414       .  A
C183        C188   1.403       .  A
C183        H813   1.083       .  S
C184        C674   1.476       .  S
C184        C185   1.396       .  A
C185        C186   1.392       .  A
C185        H190   1.083       .  S
C186        C187   1.409       .  A
C186        H191   1.083       .  S
C187        C188   1.396       .  A
C188        H192   1.083       .  S
H189        C807   1.083       .  S
C193        C194   1.414       .  A
C193        C198   1.395       .  A
C193        H199   1.083       .  S
C194        C195   1.405       .  A
C195        C196   1.407       .  A
C195        H200   1.083       .  S
C196        C197   1.409       .  A
C196        H201   1.083       .  S
C197        C198   1.394       .  A
C198        H202   1.084       .  S
C203        C204   1.403       .  A
C203        C208   1.398       .  A
C203        H209   1.084       .  S
C204        C205   1.397       .  A
C205        C206   1.399       .  A
C205        H522   1.083       .  S
C206        C207   1.411       .  A
C206        H211   1.083       .  S
C207        C208   1.403       .  A
C208        H212   1.083       .  S
H210        C517   1.083   1_554  S
C213        C214   1.401       .  A
C213        C218   1.405       .  A
C213        H219   1.082       .  S
C214        C215   1.412       .  A
C215        C216   1.388       .  A
C215        H220   1.083       .  S
C216        C217   1.393       .  A
C216        H221   1.084       .  S
C217        C218   1.411       .  A
C218       H1470   1.083       .  S
H222       C1466   1.083       .  S
C223        C224   1.408       .  A
C223        C540   1.408       .  A
C223        H229   1.081       .  S
C224        C225   1.405       .  A
C225        C226   1.395       .  A
C225        H230   1.083       .  S
C226        C539   1.404       .  A
C226        H231   1.084       .  S
C227        C228   1.406       .  A
C227        C538   1.404   1_554  A
C228        C535   1.408       .  A
C228        H232   1.083       .  S
C233        C234   1.400       .  A
C233        C238   1.394       .  A
C233        H239   1.083       .  S
C234        C235   1.410       .  A
C235        C236   1.409       .  A
C235        H240   1.083       .  S
C236        C237   1.406       .  A
C236        H241   1.083       .  S
C237        C238   1.408       .  A
C238        H242   1.083       .  S
C243        C244   1.394       .  A
C243        C248   1.394       .  A
C243        H249   1.083       .  S
C244        C245   1.406       .  A
C245        C246   1.400       .  A
C245        H250   1.083   1_554  S
C246        C247   1.403       .  A
C246        H563   1.083   1_554  S
C247        C248   1.413       .  A
C248        H252   1.083       .  S
H251        C558   1.083       .  S
C253        C254   1.408       .  A
C253        C258   1.396       .  A
C253        H259   1.083       .  S
C254        C255   1.406       .  A
C255        C256   1.405       .  A
C255        H260   1.082       .  S
C256        C257   1.407       .  A
C256        H261   1.083       .  S
C257        C258   1.401       .  A
C258        H262   1.083       .  S
C263        C264   1.409       .  A
C263        C268   1.400       .  A
C263        H269   1.083       .  S
C264        C265   1.403       .  A
C265        C266   1.397       .  A
C265        H270   1.083       .  S
C266        C267   1.402       .  A
C266        H271   1.084       .  S
C267        C268   1.399       .  A
C268        H272   1.083       .  S
C273        C274   1.405       .  A
C273        C278   1.402       .  A
C273        H279   1.083       .  S
C274        C275   1.404       .  A
C275        C276   1.397       .  A
C275        H280   1.079       .  S
C276        C277   1.401       .  A
C276        H281   1.084       .  S
C277        C340   1.470       .  S
C277        C278   1.404       .  A
C278        H282   1.083       .  S
C283        C284   1.411       .  A
C283        C288   1.403       .  A
C283        H289   1.083       .  S
C284        C285   1.394       .  A
C285        C286   1.390       .  A
C285        H290   1.084       .  S
C286        C287   1.411       .  A
C286        H291   1.083       .  S
C287        C288   1.399       .  A
C288        H292   1.083       .  S
C293        C294   1.410       .  A
C293        C298   1.395       .  A
C293        H299   1.083       .  S
C294        C295   1.398       .  A
C295        C296   1.404       .  A
C295        H300   1.083       .  S
C296        C297   1.412       .  A
C296        H301   1.083       .  S
C297        C298   1.395       .  A
C298        H302   1.083       .  S
C303        C304   1.394       .  A
C303        C308   1.393       .  A
C303        H309   1.083       .  S
C304        C305   1.409       .  A
C305        C306   1.402       .  A
C305        H310   1.083       .  S
C306        C307   1.401       .  A
C306        H311   1.083       .  S
C307        C308   1.414       .  A
C308        H312   1.083       .  S
O313        C328   1.273       .  A
O313       Al321   1.951       .  S
C314        O324   1.275       .  A
C314        O315   1.256       .  A
C314        C566   1.484       .  S
O315       Al317   1.871       .  S
O316        C318   1.272       .  A
O316       Al317   1.945       .  S
Al317       O325   1.975       .  S
Al317       O327   1.869       .  S
Al317       O326   1.764       .  S
C318        O331   1.258       .  A
C318        C596   1.469       .  S
O319        C329   1.279       .  A
O319       Al321   1.994       .  S
O320        C333   1.271       .  A
O320       Al330   1.976       .  S
Al321       O334   1.880       .  S
Al321       O331   1.871       .  S
Al321       O326   1.763       .  S
O322        C329   1.259       .  A
O322       Al330   1.868       .  S
O323        C332   1.257       .  A
O323       Al330   1.873       .  S
O324       Al330   1.986       .  S
O325        C332   1.277       .  A
O326       Al330   1.766       .  S
O327        C328   1.257       .  A
C328        C616   1.469       .  S
C329        C606   1.475       .  S
C332        C576   1.473       .  S
C333        O334   1.252       .  A
C333        C586   1.474       .  S
O335        C350   1.275       .  A
O335       Al343   1.961       .  S
C336        O346   1.278       .  A
C336        O337   1.257       .  A
C336        C539   1.479       .  S
O337       Al339   1.868       .  S
O338        C340   1.276       .  A
O338       Al339   1.972       .  S
Al339       O347   1.998       .  S
Al339       O349   1.869       .  S
Al339       O348   1.766       .  S
C340        O353   1.258       .  A
O341        C351   1.277       .  A
O341       Al343   1.993       .  S
O342        C355   1.274       .  A
O342       Al352   1.988       .  S
Al343       O356   1.862       .  S
Al343       O353   1.877       .  S
Al343       O348   1.752       .  S
O344        C351   1.258       .  A
O344       Al352   1.870       .  S
O345        C354   1.253       .  A
O345       Al352   1.860       .  S
O346       Al352   1.995       .  S
O347        C354   1.278       .  A
O348       Al352   1.755       .  S
O349        C350   1.258       .  A
C350        C556   1.464       .  S
C351        C546   1.477       .  S
C354        C526   1.479       .  S
C355        O356   1.252       .  A
C355        C599   1.475       .  S
O357       Al989   1.965       .  S
C358        O368   1.273       .  A
C358        O359   1.257       .  A
C358        C609   1.473       .  S
O359       Al361   1.868       .  S
O360        C362   1.279       .  A
O360       Al361   1.969       .  S
Al361       O369   1.976       .  S
Al361       O995   1.874       .  S
C362        O999   1.261       .  A
C362       C1120   1.476   1_545  S
O363        C373   1.279       .  A
O363       Al365   2.008       .  S
O364        C377   1.274       .  A
O364       Al374   1.979       .  S
Al365       O981   1.965   1_545  S
Al365      O1002   1.877       .  S
Al365       O687   1.867       .  S
Al365       O370   1.767       .  S
O366        C373   1.255       .  A
O366       Al374   1.868       .  S
O367        C376   1.255       .  A
O367       Al374   1.862       .  S
O370       Al374   1.752       .  S
O371        C372   1.255       .  A
O371       Al985   1.874       .  S
C372        C516   1.464       .  S
C373        C506   1.491       .  S
O375        C986   1.261       .  A
O375       Al677   1.867   1_556  S
C376        C559   1.480       .  S
C377       O1002   1.255       .  A
C377       C1110   1.467       .  S
O378       C1001   1.255       .  A
O378       Al989   1.877       .  S
O379        C394   1.275       .  A
O379       Al387   1.962       .  S
C380        O390   1.279       .  A
C380        O381   1.256       .  A
C380        C549   1.486       .  S
O381       Al383   1.861       .  S
O382        C384   1.276       .  A
O382       Al383   1.969       .  S
Al383       O391   1.991       .  S
Al383       O393   1.870       .  S
Al383       O392   1.764       .  S
C384        O397   1.258       .  A
C384        C489   1.470       .  S
O385        C395   1.275       .  A
O385       Al387   1.985       .  S
O386        C399   1.276       .  A
O386       Al396   1.993       .  S
Al387       O400   1.863       .  S
Al387       O397   1.873       .  S
Al387       O392   1.754       .  S
O388        C395   1.258       .  A
O388       Al396   1.877       .  S
O389        C398   1.254       .  A
O389       Al396   1.859       .  S
O390       Al396   2.001       .  S
O391        C398   1.278       .  A
O392       Al396   1.757       .  S
O393        C394   1.258       .  A
C394       C1100   1.468       .  S
C395        C466   1.479       .  S
C398        C619   1.482       .  S
C399        O400   1.253       .  A
C399        C499   1.471       .  S
O401        C416   1.273       .  A
O401      Al1657   1.963       .  S
C402        O412   1.278       .  A
C402        O403   1.256       .  A
C402        C469   1.480       .  S
O403       Al405   1.861       .  S
O404        C406   1.275       .  A
O404       Al405   1.963       .  S
Al405       O413   1.978       .  S
Al405      O1663   1.876       .  S
Al405       O414   1.757       .  S
C406        O419   1.257       .  A
C406        C446   1.461       .  S
O407        C417   1.278       .  A
O407       Al409   1.998       .  S
O408        C421   1.275       .  A
O408       Al418   1.994       .  S
Al409      O1649   1.963   1_455  S
Al409       O422   1.863       .  S
Al409       O419   1.862       .  S
Al409       O414   1.758       .  S
O410        C417   1.258       .  A
O410       Al418   1.870       .  S
O411        C420   1.256       .  A
O411       Al418   1.870       .  S
O412       Al418   1.998       .  S
O413        C420   1.276       .  A
O414       Al418   1.760       .  S
O415        C416   1.257       .  A
O415      Al1653   1.876       .  S
C416        C579   1.463       .  S
C417        C536   1.483       .  S
C420        C519   1.477       .  S
C421        O422   1.251       .  A
O423        C438   1.272       .  A
O423      Al1679   1.947       .  S
C424        O434   1.275       .  A
C424        O425   1.255       .  A
C424        C509   1.469       .  S
O425       Al427   1.865       .  S
O426        C428   1.279       .  A
O426       Al427   1.968       .  S
Al427       O435   1.995       .  S
Al427       O437   1.876       .  S
Al427       O436   1.767       .  S
C428        O441   1.258       .  A
C428        C459   1.476       .  S
O429        C439   1.276       .  A
O429       Al431   1.987       .  S
O430        C443   1.275       .  A
O430       Al440   1.988       .  S
Al431      O1671   1.947       .  S
Al431       O444   1.860       .  S
Al431       O441   1.862       .  S
Al431       O436   1.754       .  S
O432        C439   1.258       .  A
O432       Al440   1.874       .  S
O433        C442   1.253       .  A
O433       Al440   1.859       .  S
O434       Al440   1.987       .  S
O435        C442   1.279       .  A
O436       Al440   1.757       .  S
O437       C1686   1.258       .  A
C438       O1685   1.258       .  A
C438        C529   1.470   1_655  S
C439        C569   1.474       .  S
C442        C479   1.482       .  S
C443        O444   1.251       .  A
C443        C449   1.478       .  S
C445       C1694   1.407       .  A
C445        C450   1.400       .  A
C445        H451   1.083       .  S
C446       C1693   1.407   1_455  A
C446        C447   1.391       .  A
C447        C448   1.392       .  A
C447        H452   1.084       .  S
C448       C1697   1.414   1_455  A
C448        H453   1.083       .  S
C449       C1696   1.414       .  A
C449        C450   1.400       .  A
C450        H454   1.083       .  S
C455       C1704   1.396       .  A
C455        C460   1.403       .  A
C455        H461   1.083       .  S
C456       C1703   1.396       .  A
C456        C457   1.409   1_455  A
C457       C1706   1.390       .  A
C458       C1705   1.390       .  A
C458        C459   1.395       .  A
C458        H463   1.083       .  S
C459        C460   1.416       .  A
C460        H464   1.083       .  S
C465        C466   1.402       .  A
C465        C470   1.395       .  A
C465        H471   1.083       .  S
C466        C467   1.409       .  A
C467        C468   1.406       .  A
C467        H472   1.082       .  S
C468        C469   1.404       .  A
C468        H473   1.082       .  S
C469        C470   1.407       .  A
C470        H474   1.084       .  S
C475        C476   1.392       .  A
C475        C480   1.392       .  A
C475        H481   1.083       .  S
C476       C1018   1.468   1_545  S
C476        C477   1.409       .  A
C477        C478   1.403       .  A
C477       H1106   1.083   1_545  S
C478        C479   1.401       .  A
C478        H483   1.082       .  S
C479        C480   1.415       .  A
C480        H484   1.083       .  S
H482       C1101   1.083       .  S
C485        C486   1.402       .  A
C485        C490   1.401       .  A
C485        H491   1.083       .  S
C486       C1001   1.467       .  S
C486       C1111   1.402       .  A
C487       C1110   1.402       .  A
C487       C1112   1.395   1_545  A
C487        H492   1.078       .  S
C488       C1111   1.395       .  A
C488        C489   1.400       .  A
C488        H493   1.084       .  S
C489        C490   1.407       .  A
C490        H494   1.084       .  S
C495        C496   1.414       .  A
C495        C500   1.403       .  A
C495       H1125   1.083       .  S
C496        C986   1.476       .  S
C496        C497   1.396       .  A
C497        C498   1.392       .  A
C497        H502   1.083       .  S
C498        C499   1.409       .  A
C498        H503   1.083       .  S
C499        C500   1.396       .  A
C500        H504   1.083       .  S
H501       C1119   1.083       .  S
C505        C506   1.414       .  A
C505        C510   1.395       .  A
C505        H511   1.083       .  S
C506        C507   1.405       .  A
C507        C508   1.407       .  A
C507        H512   1.083       .  S
C508        C509   1.409       .  A
C508        H513   1.083       .  S
C509        C510   1.394       .  A
C510        H514   1.084       .  S
C515        C516   1.403       .  A
C515        C520   1.398       .  A
C515        H521   1.084       .  S
C516        C517   1.397       .  A
C517        C518   1.399       .  A
C518        C519   1.411       .  A
C518        H523   1.083       .  S
C519        C520   1.403       .  A
C520        H524   1.083       .  S
C525        C526   1.401       .  A
C525        C530   1.405       .  A
C525        H531   1.082       .  S
C526        C527   1.412       .  A
C527        C528   1.388       .  A
C527        H532   1.083       .  S
C528        C529   1.393       .  A
C528        H533   1.084       .  S
C529        C530   1.411       .  A
C530       H1782   1.083       .  S
H534       C1778   1.083       .  S
C535        C536   1.408   1_554  A
C535        H541   1.081       .  S
C536        C537   1.405       .  A
C537        C538   1.395       .  A
C537        H542   1.083       .  S
C538        H543   1.084       .  S
C539        C540   1.406       .  A
C540        H544   1.083       .  S
C545        C546   1.400       .  A
C545        C550   1.394       .  A
C545        H551   1.083       .  S
C546        C547   1.410       .  A
C547        C548   1.409       .  A
C547        H552   1.083       .  S
C548        C549   1.406       .  A
C548        H553   1.083       .  S
C549        C550   1.408       .  A
C550        H554   1.083       .  S
C555        C556   1.394       .  A
C555        C560   1.394       .  A
C555        H561   1.083       .  S
C556        C557   1.406       .  A
C557        C558   1.400       .  A
C557        H562   1.083       .  S
C558        C559   1.403       .  A
C559        C560   1.413       .  A
C560        H564   1.083       .  S
C565        C566   1.408       .  A
C565        C570   1.396       .  A
C565        H571   1.083       .  S
C566        C567   1.406       .  A
C567        C568   1.405       .  A
C567        H572   1.082       .  S
C568        C569   1.407       .  A
C568        H573   1.083       .  S
C569        C570   1.401       .  A
C570        H574   1.083       .  S
C575        C576   1.409       .  A
C575        C580   1.400       .  A
C575        H581   1.083       .  S
C576        C577   1.403       .  A
C577        C578   1.397       .  A
C577        H582   1.083       .  S
C578        C579   1.402       .  A
C578        H583   1.084       .  S
C579        C580   1.399       .  A
C580        H584   1.083       .  S
C585        C586   1.405       .  A
C585        C590   1.402       .  A
C585        H591   1.083       .  S
C586        C587   1.404       .  A
C587        C588   1.397       .  A
C587        H592   1.079       .  S
C588        C589   1.401       .  A
C588        H593   1.084       .  S
C589        C590   1.404       .  A
C590        H594   1.083       .  S
C595        C596   1.411       .  A
C595        C600   1.403       .  A
C595        H601   1.083       .  S
C596        C597   1.394       .  A
C597        C598   1.390       .  A
C597        H602   1.084       .  S
C598        C599   1.411       .  A
C598        H603   1.083       .  S
C599        C600   1.399       .  A
C600        H604   1.083       .  S
C605        C606   1.410       .  A
C605        C610   1.395       .  A
C605        H611   1.083       .  S
C606        C607   1.398       .  A
C607        C608   1.404       .  A
C607        H612   1.083       .  S
C608        C609   1.412       .  A
C608        H613   1.083       .  S
C609        C610   1.395       .  A
C610        H614   1.083       .  S
C615        C616   1.394       .  A
C615        C620   1.393       .  A
C615        H621   1.083       .  S
C616        C617   1.409       .  A
C617        C618   1.402       .  A
C617        H622   1.083       .  S
C618        C619   1.401       .  A
C618        H623   1.083       .  S
C619        C620   1.414       .  A
C620        H624   1.083       .  S
O625        C640   1.273       .  A
O625       Al633   1.951       .  S
C626        O636   1.275       .  A
C626        O627   1.256       .  A
C626        C878   1.484       .  S
O627       Al629   1.871       .  S
O628        C630   1.272       .  A
O628       Al629   1.945       .  S
Al629       O637   1.975       .  S
Al629       O639   1.869       .  S
Al629       O638   1.764       .  S
C630        O643   1.258       .  A
C630        C908   1.469       .  S
O631        C641   1.279       .  A
O631       Al633   1.994       .  S
O632        C645   1.271       .  A
O632       Al642   1.976       .  S
Al633       O646   1.880       .  S
Al633       O643   1.871       .  S
Al633       O638   1.763       .  S
O634        C641   1.259       .  A
O634       Al642   1.868       .  S
O635        C644   1.257       .  A
O635       Al642   1.873       .  S
O636       Al642   1.986       .  S
O637        C644   1.277       .  A
O638       Al642   1.766       .  S
O639        C640   1.257       .  A
C640        C928   1.469       .  S
C641        C918   1.475       .  S
C644        C888   1.473       .  S
C645        O646   1.252       .  A
C645        C898   1.474       .  S
O647        C662   1.275       .  A
O647       Al655   1.961       .  S
C648        O658   1.278       .  A
C648        O649   1.257       .  A
C648        C851   1.479       .  S
O649       Al651   1.868       .  S
O650        C652   1.276       .  A
O650       Al651   1.972       .  S
Al651       O659   1.998       .  S
Al651       O661   1.869       .  S
Al651       O660   1.766       .  S
C652        O665   1.258       .  A
C652       C1213   1.470   1_554  S
O653        C663   1.277       .  A
O653       Al655   1.993       .  S
O654        C667   1.274       .  A
O654       Al664   1.988       .  S
Al655       O668   1.862       .  S
Al655       O665   1.877       .  S
Al655       O660   1.752       .  S
O656        C663   1.258       .  A
O656       Al664   1.870       .  S
O657        C666   1.253       .  A
O657       Al664   1.860       .  S
O658       Al664   1.995       .  S
O659        C666   1.278       .  A
O660       Al664   1.755       .  S
O661        C662   1.258       .  A
C662        C868   1.464       .  S
C663        C858   1.477       .  S
C666        C838   1.479       .  S
C667        O668   1.252       .  A
C667        C911   1.475       .  S
O669        C996   1.272       .  A
C670        O680   1.273       .  A
C670        O671   1.257       .  A
C670        C921   1.473       .  S
O671       Al673   1.868       .  S
O672        C674   1.279       .  A
O672       Al673   1.969       .  S
Al673       O681   1.976       .  S
Al673       O994   1.765       .  S
O675        C685   1.279       .  A
O675       Al677   2.008       .  S
O676        C689   1.274       .  A
O676       Al686   1.979       .  S
Al677       O682   1.767   1_554  S
O678        C685   1.255       .  A
O678       Al686   1.868       .  S
O679        C688   1.255       .  A
O679       Al686   1.862       .  S
O680       Al998   1.968       .  S
O681       C1000   1.275       .  A
O682       Al985   1.765       .  S
O682       Al686   1.752   1_556  S
O683        C684   1.255   1_545  A
C684        O981   1.272       .  A
C684        C828   1.464       .  S
C685        C818   1.491       .  S
Al686       O992   1.968   1_554  S
C688        O993   1.275   1_554  A
C688        C871   1.480       .  S
O691        C706   1.275       .  A
O691       Al699   1.962       .  S
C692        O702   1.279       .  A
C692        O693   1.256       .  A
C692        C861   1.486       .  S
O693       Al695   1.861       .  S
O694        C696   1.276       .  A
O694       Al695   1.969       .  S
Al695       O703   1.991       .  S
Al695       O705   1.870       .  S
Al695       O704   1.764       .  S
C696        O709   1.258       .  A
C696        C801   1.470       .  S
O697        C707   1.275       .  A
O697       Al699   1.985       .  S
O698        C711   1.276       .  A
O698       Al708   1.993       .  S
Al699       O712   1.863       .  S
Al699       O709   1.873       .  S
Al699       O704   1.754       .  S
O700        C707   1.258       .  A
O700       Al708   1.877       .  S
O701        C710   1.254       .  A
O701       Al708   1.859       .  S
O702       Al708   2.001       .  S
O703        C710   1.278       .  A
O704       Al708   1.757       .  S
O705        C706   1.258       .  A
C707        C778   1.479       .  S
C710        C931   1.482       .  S
C711        O712   1.253       .  A
C711        C811   1.471       .  S
O713        C728   1.273       .  A
O713      Al1969   1.963       .  S
C714        O724   1.278       .  A
C714        O715   1.256       .  A
C714        C781   1.480       .  S
O715       Al717   1.861       .  S
O716        C718   1.275       .  A
O716       Al717   1.963       .  S
Al717       O725   1.978       .  S
Al717      O1975   1.876       .  S
Al717       O726   1.757       .  S
C718        O731   1.257       .  A
C718        C758   1.461       .  S
O719        C729   1.278       .  A
O719       Al721   1.998       .  S
O720        C733   1.275       .  A
O720       Al730   1.994       .  S
Al721      O1961   1.963   1_455  S
Al721       O734   1.863       .  S
Al721       O731   1.862       .  S
Al721       O726   1.758       .  S
O722        C729   1.258       .  A
O722       Al730   1.870       .  S
O723        C732   1.256       .  A
O723       Al730   1.870       .  S
O724       Al730   1.998       .  S
O725        C732   1.276       .  A
O726       Al730   1.760       .  S
O727        C728   1.257       .  A
O727      Al1965   1.876       .  S
C728        C891   1.463       .  S
C729        C848   1.483       .  S
C732        C831   1.477       .  S
C733        O734   1.251       .  A
C733       C1080   1.470       .  S
O735        C750   1.272       .  A
O735      Al1991   1.947       .  S
C736        O746   1.275       .  A
C736        O737   1.255       .  A
C736        C821   1.469       .  S
O737       Al739   1.865       .  S
O738        C740   1.279       .  A
O738       Al739   1.968       .  S
Al739       O747   1.995       .  S
Al739       O749   1.876       .  S
Al739       O748   1.767       .  S
C740        O753   1.258       .  A
C740        C771   1.476       .  S
O741        C751   1.276       .  A
O741       Al743   1.987       .  S
O742        C755   1.275       .  A
O742       Al752   1.988       .  S
Al743      O1983   1.947       .  S
Al743       O756   1.860       .  S
Al743       O753   1.862       .  S
Al743       O748   1.754       .  S
O744        C751   1.258       .  A
O744       Al752   1.874       .  S
O745        C754   1.253       .  A
O745       Al752   1.859       .  S
O746       Al752   1.987       .  S
O747        C754   1.279       .  A
O748       Al752   1.757       .  S
O749       C1998   1.258       .  A
C750       O1997   1.258       .  A
C750        C841   1.470   1_655  S
C751        C881   1.474       .  S
C754        C791   1.482       .  S
C755        O756   1.251       .  A
C755        C761   1.478       .  S
C757       C2006   1.407       .  A
C757        C762   1.400       .  A
C757        H763   1.083       .  S
C758       C2005   1.407   1_455  A
C758        C759   1.391       .  A
C759        C760   1.392       .  A
C759        H764   1.084       .  S
C760       C2009   1.414   1_455  A
C760        H765   1.083       .  S
C761       C2008   1.414       .  A
C761        C762   1.400       .  A
C762        H766   1.083       .  S
C767       C2016   1.396       .  A
C767        C772   1.403       .  A
C767        H773   1.083       .  S
C768       C1045   1.470   1_554  S
C768       C2015   1.396       .  A
C768        C769   1.409   1_455  A
C769       C2018   1.390       .  A
C769       H1086   1.081   1_554  S
C770       C2017   1.390       .  A
C770        C771   1.395       .  A
C770        H775   1.083       .  S
C771        C772   1.416       .  A
C772        H776   1.083       .  S
H774       C1081   1.081       .  S
C777        C778   1.402       .  A
C777        C782   1.395       .  A
C777        H783   1.083       .  S
C778        C779   1.409       .  A
C779        C780   1.406       .  A
C779        H784   1.082       .  S
C780        C781   1.404       .  A
C780        H785   1.082       .  S
C781        C782   1.407       .  A
C782        H786   1.084       .  S
C787        C788   1.392       .  A
C787        C792   1.392       .  A
C787        H793   1.083       .  S
C788        C789   1.409       .  A
C789        C790   1.403       .  A
C790        C791   1.401       .  A
C790        H795   1.082       .  S
C791        C792   1.415       .  A
C792        H796   1.083       .  S
C797        C798   1.402   1_565  A
C797        C802   1.401       .  A
C797        H803   1.083       .  S
C799        H804   1.078       .  S
C800        C801   1.400       .  A
C800        H805   1.084   1_565  S
C801        C802   1.407       .  A
C802        H806   1.084       .  S
C807        C808   1.414       .  A
C807        C812   1.403       .  A
C808        C809   1.396       .  A
C809        C810   1.392       .  A
C809        H814   1.083   1_565  S
C810        C811   1.409       .  A
C810        H815   1.083       .  S
C811        C812   1.396       .  A
C812        H816   1.083       .  S
C817        C818   1.414       .  A
C817        C822   1.395       .  A
C817        H823   1.083       .  S
C818        C819   1.405       .  A
C819        C820   1.407       .  A
C819        H824   1.083       .  S
C820        C821   1.409       .  A
C820        H825   1.083       .  S
C821        C822   1.394       .  A
C822        H826   1.084       .  S
C827        C828   1.403       .  A
C827        C832   1.398       .  A
C827        H833   1.084       .  S
C828        C829   1.397       .  A
C829        C830   1.399       .  A
C829       H1146   1.083       .  S
C830        C831   1.411       .  A
C830        H835   1.083       .  S
C831        C832   1.403       .  A
C832        H836   1.083       .  S
H834       C1141   1.083   1_554  S
C837        C838   1.401       .  A
C837        C842   1.405       .  A
C837        H843   1.082       .  S
C838        C839   1.412       .  A
C839        C840   1.388       .  A
C839        H844   1.083       .  S
C840        C841   1.393       .  A
C840        H845   1.084       .  S
C841        C842   1.411       .  A
C842       H2094   1.083       .  S
H846       C2090   1.083       .  S
C847        C848   1.408       .  A
C847       C1164   1.408       .  A
C847        H853   1.081       .  S
C848        C849   1.405       .  A
C849        C850   1.395       .  A
C849        H854   1.083       .  S
C850       C1163   1.404       .  A
C850        H855   1.084       .  S
C851       C1162   1.404   1_554  A
C851        C852   1.406       .  A
C852       C1159   1.408       .  A
C852        H856   1.083       .  S
C857        C858   1.400       .  A
C857        C862   1.394       .  A
C857        H863   1.083       .  S
C858        C859   1.410       .  A
C859        C860   1.409       .  A
C859        H864   1.083       .  S
C860        C861   1.406       .  A
C860        H865   1.083       .  S
C861        C862   1.408       .  A
C862        H866   1.083       .  S
C867        C868   1.394       .  A
C867        C872   1.394       .  A
C867        H873   1.083       .  S
C868        C869   1.406       .  A
C869        C870   1.400       .  A
C869        H874   1.083   1_554  S
C870        C871   1.403       .  A
C870       H1187   1.083   1_554  S
C871        C872   1.413       .  A
C872        H876   1.083       .  S
H875       C1182   1.083       .  S
C877        C878   1.408       .  A
C877        C882   1.396       .  A
C877        H883   1.083       .  S
C878        C879   1.406       .  A
C879        C880   1.405       .  A
C879        H884   1.082       .  S
C880        C881   1.407       .  A
C880        H885   1.083       .  S
C881        C882   1.401       .  A
C882        H886   1.083       .  S
C887        C888   1.409       .  A
C887        C892   1.400       .  A
C887        H893   1.083       .  S
C888        C889   1.403       .  A
C889        C890   1.397       .  A
C889        H894   1.083       .  S
C890        C891   1.402       .  A
C890        H895   1.084       .  S
C891        C892   1.399       .  A
C892        H896   1.083       .  S
C897        C898   1.405       .  A
C897        C902   1.402       .  A
C897        H903   1.083       .  S
C898        C899   1.404       .  A
C899        C900   1.397       .  A
C899        H904   1.079       .  S
C900        C901   1.401       .  A
C900        H905   1.084       .  S
C901        C964   1.470       .  S
C901        C902   1.404       .  A
C902        H906   1.083       .  S
C907        C908   1.411       .  A
C907        C912   1.403       .  A
C907        H913   1.083       .  S
C908        C909   1.394       .  A
C909        C910   1.390       .  A
C909        H914   1.084       .  S
C910        C911   1.411       .  A
C910        H915   1.083       .  S
C911        C912   1.399       .  A
C912        H916   1.083       .  S
C917        C918   1.410       .  A
C917        C922   1.395       .  A
C917        H923   1.083       .  S
C918        C919   1.398       .  A
C919        C920   1.404       .  A
C919        H924   1.083       .  S
C920        C921   1.412       .  A
C920        H925   1.083       .  S
C921        C922   1.395       .  A
C922        H926   1.083       .  S
C927        C928   1.394       .  A
C927        C932   1.393       .  A
C927        H933   1.083       .  S
C928        C929   1.409       .  A
C929        C930   1.402       .  A
C929        H934   1.083       .  S
C930        C931   1.401       .  A
C930        H935   1.083       .  S
C931        C932   1.414       .  A
C932        H936   1.083       .  S
O937        C952   1.273       .  A
O937       Al945   1.951       .  S
C938        O948   1.275       .  A
C938        O939   1.256       .  A
C938       C1190   1.484       .  S
O939       Al941   1.871       .  S
O940        C942   1.272       .  A
O940       Al941   1.945       .  S
Al941       O949   1.975       .  S
Al941       O951   1.869       .  S
Al941       O950   1.764       .  S
C942        O955   1.258       .  A
C942       C1220   1.469       .  S
O943        C953   1.279       .  A
O943       Al945   1.994       .  S
O944        C957   1.271       .  A
O944       Al954   1.976       .  S
Al945       O958   1.880       .  S
Al945       O955   1.871       .  S
Al945       O950   1.763       .  S
O946        C953   1.259       .  A
O946       Al954   1.868       .  S
O947        C956   1.257       .  A
O947       Al954   1.873       .  S
O948       Al954   1.986       .  S
O949        C956   1.277       .  A
O950       Al954   1.766       .  S
O951        C952   1.257       .  A
C952       C1240   1.469       .  S
C953       C1230   1.475       .  S
C956       C1200   1.473       .  S
C957        O958   1.252       .  A
C957       C1210   1.474       .  S
O959        C974   1.275       .  A
O959       Al967   1.961       .  S
C960        O970   1.278       .  A
C960        O961   1.257       .  A
C960       C1163   1.479       .  S
O961       Al963   1.868       .  S
O962        C964   1.276       .  A
O962       Al963   1.972       .  S
Al963       O971   1.998       .  S
Al963       O973   1.869       .  S
Al963       O972   1.766       .  S
C964        O977   1.258       .  A
O965        C975   1.277       .  A
O965       Al967   1.993       .  S
O966        C979   1.274       .  A
O966       Al976   1.988       .  S
Al967       O980   1.862       .  S
Al967       O977   1.877       .  S
Al967       O972   1.752       .  S
O968        C975   1.258       .  A
O968       Al976   1.870       .  S
O969        C978   1.253       .  A
O969       Al976   1.860       .  S
O970       Al976   1.995       .  S
O971        C978   1.278       .  A
O972       Al976   1.755       .  S
O973        C974   1.258       .  A
C974       C1180   1.464       .  S
C975       C1170   1.477       .  S
C978       C1150   1.479       .  S
C979        O980   1.252       .  A
C979       C1223   1.475       .  S
C982        O992   1.273       .  A
C982        O983   1.257       .  A
C982       C1233   1.473       .  S
O983       Al985   1.868       .  S
O984        C986   1.279       .  A
O984       Al985   1.969       .  S
Al985       O993   1.976       .  S
O987        C997   1.279       .  A
O987       Al989   2.008       .  S
O988       C1001   1.274       .  A
O988       Al998   1.979       .  S
Al989       O994   1.767       .  S
O990        C997   1.255       .  A
O990       Al998   1.868       .  S
O991       C1000   1.255       .  A
O991       Al998   1.862       .  S
O994       Al998   1.752       .  S
O995        C996   1.255   1_545  A
C996       C1140   1.464       .  S
C997       C1130   1.491       .  S
C1000      C1183   1.480       .  S
O1003      C1018   1.275       .  A
O1003     Al1011   1.962       .  S
C1004      O1014   1.279       .  A
C1004      O1005   1.256       .  A
C1004      C1173   1.486       .  S
O1005     Al1007   1.861       .  S
O1006      C1008   1.276       .  A
O1006     Al1007   1.969       .  S
Al1007     O1015   1.991       .  S
Al1007     O1017   1.870       .  S
Al1007     O1016   1.764       .  S
C1008      O1021   1.258       .  A
C1008      C1113   1.470       .  S
O1009      C1019   1.275       .  A
O1009     Al1011   1.985       .  S
O1010      C1023   1.276       .  A
O1010     Al1020   1.993       .  S
Al1011     O1024   1.863       .  S
Al1011     O1021   1.873       .  S
Al1011     O1016   1.754       .  S
O1012      C1019   1.258       .  A
O1012     Al1020   1.877       .  S
O1013      C1022   1.254       .  A
O1013     Al1020   1.859       .  S
O1014     Al1020   2.001       .  S
O1015      C1022   1.278       .  A
O1016     Al1020   1.757       .  S
O1017      C1018   1.258       .  A
C1019      C1090   1.479       .  S
C1022      C1243   1.482       .  S
C1023      O1024   1.253       .  A
C1023      C1123   1.471       .  S
O1025      C1040   1.273       .  A
O1025     Al2281   1.963       .  S
C1026      O1036   1.278       .  A
C1026      O1027   1.256       .  A
C1026      C1093   1.480       .  S
O1027     Al1029   1.861       .  S
O1028      C1030   1.275       .  A
O1028     Al1029   1.963       .  S
Al1029     O1037   1.978       .  S
Al1029     O2287   1.876       .  S
Al1029     O1038   1.757       .  S
C1030      O1043   1.257       .  A
C1030      C1070   1.461       .  S
O1031      C1041   1.278       .  A
O1031     Al1033   1.998       .  S
O1032      C1045   1.275       .  A
O1032     Al1042   1.994       .  S
Al1033     O2273   1.963   1_455  S
Al1033     O1046   1.863       .  S
Al1033     O1043   1.862       .  S
Al1033     O1038   1.758       .  S
O1034      C1041   1.258       .  A
O1034     Al1042   1.870       .  S
O1035      C1044   1.256       .  A
O1035     Al1042   1.870       .  S
O1036     Al1042   1.998       .  S
O1037      C1044   1.276       .  A
O1038     Al1042   1.760       .  S
O1039      C1040   1.257       .  A
O1039     Al2277   1.876       .  S
C1040      C1203   1.463       .  S
C1041      C1160   1.483       .  S
C1044      C1143   1.477       .  S
C1045      O1046   1.251       .  A
O1047      C1062   1.272       .  A
O1047     Al2303   1.947       .  S
C1048      O1058   1.275       .  A
C1048      O1049   1.255       .  A
C1048      C1133   1.469       .  S
O1049     Al1051   1.865       .  S
O1050      C1052   1.279       .  A
O1050     Al1051   1.968       .  S
Al1051     O1059   1.995       .  S
Al1051     O1061   1.876       .  S
Al1051     O1060   1.767       .  S
C1052      O1065   1.258       .  A
C1052      C1083   1.476       .  S
O1053      C1063   1.276       .  A
O1053     Al1055   1.987       .  S
O1054      C1067   1.275       .  A
O1054     Al1064   1.988       .  S
Al1055     O2295   1.947       .  S
Al1055     O1068   1.860       .  S
Al1055     O1065   1.862       .  S
Al1055     O1060   1.754       .  S
O1056      C1063   1.258       .  A
O1056     Al1064   1.874       .  S
O1057      C1066   1.253       .  A
O1057     Al1064   1.859       .  S
O1058     Al1064   1.987       .  S
O1059      C1066   1.279       .  A
O1060     Al1064   1.757       .  S
O1061      C2310   1.258       .  A
C1062      O2309   1.258       .  A
C1062      C1153   1.470   1_655  S
C1063      C1193   1.474       .  S
C1066      C1103   1.482       .  S
C1067      O1068   1.251       .  A
C1067      C1073   1.478       .  S
C1069      C2318   1.407       .  A
C1069      C1074   1.400       .  A
C1069      H1075   1.083       .  S
C1070      C2317   1.407   1_455  A
C1070      C1071   1.391       .  A
C1071      C1072   1.392       .  A
C1071      H1076   1.084       .  S
C1072      C2321   1.414   1_455  A
C1072      H1077   1.083       .  S
C1073      C2320   1.414       .  A
C1073      C1074   1.400       .  A
C1074      H1078   1.083       .  S
C1079      C2328   1.396       .  A
C1079      C1084   1.403       .  A
C1079      H1085   1.083       .  S
C1080      C2327   1.396       .  A
C1080      C1081   1.409   1_455  A
C1081      C2330   1.390       .  A
C1082      C2329   1.390       .  A
C1082      C1083   1.395       .  A
C1082      H1087   1.083       .  S
C1083      C1084   1.416       .  A
C1084      H1088   1.083       .  S
C1089      C1090   1.402       .  A
C1089      C1094   1.395       .  A
C1089      H1095   1.083       .  S
C1090      C1091   1.409       .  A
C1091      C1092   1.406       .  A
C1091      H1096   1.082       .  S
C1092      C1093   1.404       .  A
C1092      H1097   1.082       .  S
C1093      C1094   1.407       .  A
C1094      H1098   1.084       .  S
C1099      C1100   1.392       .  A
C1099      C1104   1.392       .  A
C1099      H1105   1.083       .  S
C1100      C1101   1.409       .  A
C1101      C1102   1.403       .  A
C1102      C1103   1.401       .  A
C1102      H1107   1.082       .  S
C1103      C1104   1.415       .  A
C1104      H1108   1.083       .  S
C1109      C1110   1.402   1_565  A
C1109      C1114   1.401       .  A
C1109      H1115   1.083       .  S
C1111      H1116   1.078       .  S
C1112      C1113   1.400       .  A
C1112      H1117   1.084   1_565  S
C1113      C1114   1.407       .  A
C1114      H1118   1.084       .  S
C1119      C1120   1.414       .  A
C1119      C1124   1.403       .  A
C1120      C1121   1.396       .  A
C1121      C1122   1.392       .  A
C1121      H1126   1.083   1_565  S
C1122      C1123   1.409       .  A
C1122      H1127   1.083       .  S
C1123      C1124   1.396       .  A
C1124      H1128   1.083       .  S
C1129      C1130   1.414       .  A
C1129      C1134   1.395       .  A
C1129      H1135   1.083       .  S
C1130      C1131   1.405       .  A
C1131      C1132   1.407       .  A
C1131      H1136   1.083       .  S
C1132      C1133   1.409       .  A
C1132      H1137   1.083       .  S
C1133      C1134   1.394       .  A
C1134      H1138   1.084       .  S
C1139      C1140   1.403       .  A
C1139      C1144   1.398       .  A
C1139      H1145   1.084       .  S
C1140      C1141   1.397       .  A
C1141      C1142   1.399       .  A
C1142      C1143   1.411       .  A
C1142      H1147   1.083       .  S
C1143      C1144   1.403       .  A
C1144      H1148   1.083       .  S
C1149      C1150   1.401       .  A
C1149      C1154   1.405       .  A
C1149      H1155   1.082       .  S
C1150      C1151   1.412       .  A
C1151      C1152   1.388       .  A
C1151      H1156   1.083       .  S
C1152      C1153   1.393       .  A
C1152      H1157   1.084       .  S
C1153      C1154   1.411       .  A
C1154      H2406   1.083       .  S
H1158      C2402   1.083       .  S
C1159      C1160   1.408   1_554  A
C1159      H1165   1.081       .  S
C1160      C1161   1.405       .  A
C1161      C1162   1.395       .  A
C1161      H1166   1.083       .  S
C1162      H1167   1.084       .  S
C1163      C1164   1.406       .  A
C1164      H1168   1.083       .  S
C1169      C1170   1.400       .  A
C1169      C1174   1.394       .  A
C1169      H1175   1.083       .  S
C1170      C1171   1.410       .  A
C1171      C1172   1.409       .  A
C1171      H1176   1.083       .  S
C1172      C1173   1.406       .  A
C1172      H1177   1.083       .  S
C1173      C1174   1.408       .  A
C1174      H1178   1.083       .  S
C1179      C1180   1.394       .  A
C1179      C1184   1.394       .  A
C1179      H1185   1.083       .  S
C1180      C1181   1.406       .  A
C1181      C1182   1.400       .  A
C1181      H1186   1.083       .  S
C1182      C1183   1.403       .  A
C1183      C1184   1.413       .  A
C1184      H1188   1.083       .  S
C1189      C1190   1.408       .  A
C1189      C1194   1.396       .  A
C1189      H1195   1.083       .  S
C1190      C1191   1.406       .  A
C1191      C1192   1.405       .  A
C1191      H1196   1.082       .  S
C1192      C1193   1.407       .  A
C1192      H1197   1.083       .  S
C1193      C1194   1.401       .  A
C1194      H1198   1.083       .  S
C1199      C1200   1.409       .  A
C1199      C1204   1.400       .  A
C1199      H1205   1.083       .  S
C1200      C1201   1.403       .  A
C1201      C1202   1.397       .  A
C1201      H1206   1.083       .  S
C1202      C1203   1.402       .  A
C1202      H1207   1.084       .  S
C1203      C1204   1.399       .  A
C1204      H1208   1.083       .  S
C1209      C1210   1.405       .  A
C1209      C1214   1.402       .  A
C1209      H1215   1.083       .  S
C1210      C1211   1.404       .  A
C1211      C1212   1.397       .  A
C1211      H1216   1.079       .  S
C1212      C1213   1.401       .  A
C1212      H1217   1.084       .  S
C1213      C1214   1.404       .  A
C1214      H1218   1.083       .  S
C1219      C1220   1.411       .  A
C1219      C1224   1.403       .  A
C1219      H1225   1.083       .  S
C1220      C1221   1.394       .  A
C1221      C1222   1.390       .  A
C1221      H1226   1.084       .  S
C1222      C1223   1.411       .  A
C1222      H1227   1.083       .  S
C1223      C1224   1.399       .  A
C1224      H1228   1.083       .  S
C1229      C1230   1.410       .  A
C1229      C1234   1.395       .  A
C1229      H1235   1.083       .  S
C1230      C1231   1.398       .  A
C1231      C1232   1.404       .  A
C1231      H1236   1.083       .  S
C1232      C1233   1.412       .  A
C1232      H1237   1.083       .  S
C1233      C1234   1.395       .  A
C1234      H1238   1.083       .  S
C1239      C1240   1.394       .  A
C1239      C1244   1.393       .  A
C1239      H1245   1.083       .  S
C1240      C1241   1.409       .  A
C1241      C1242   1.402       .  A
C1241      H1246   1.083       .  S
C1242      C1243   1.401       .  A
C1242      H1247   1.083       .  S
C1243      C1244   1.414       .  A
C1244      H1248   1.083       .  S
O1249      C1264   1.273       .  A
O1249     Al1257   1.951       .  S
C1250      O1260   1.275       .  A
C1250      O1251   1.256       .  A
C1250      C1502   1.484       .  S
O1251     Al1253   1.871       .  S
O1252      C1254   1.272       .  A
O1252     Al1253   1.945       .  S
Al1253     O1261   1.975       .  S
Al1253     O1263   1.869       .  S
Al1253     O1262   1.764       .  S
C1254      O1267   1.258       .  A
C1254      C1532   1.469       .  S
O1255      C1265   1.279       .  A
O1255     Al1257   1.994       .  S
O1256      C1269   1.271       .  A
O1256     Al1266   1.976       .  S
Al1257     O1270   1.880       .  S
Al1257     O1267   1.871       .  S
Al1257     O1262   1.763       .  S
O1258      C1265   1.259       .  A
O1258     Al1266   1.868       .  S
O1259      C1268   1.257       .  A
O1259     Al1266   1.873       .  S
O1260     Al1266   1.986       .  S
O1261      C1268   1.277       .  A
O1262     Al1266   1.766       .  S
O1263      C1264   1.257       .  A
C1264      C1552   1.469       .  S
C1265      C1542   1.475       .  S
C1268      C1512   1.473       .  S
C1269      O1270   1.252       .  A
C1269      C1522   1.474       .  S
O1271      C1286   1.275       .  A
O1271     Al1279   1.961       .  S
C1272      O1282   1.278       .  A
C1272      O1273   1.257       .  A
C1272      C1475   1.479       .  S
O1273     Al1275   1.868       .  S
O1274      C1276   1.276       .  A
O1274     Al1275   1.972       .  S
Al1275     O1283   1.998       .  S
Al1275     O1285   1.869       .  S
Al1275     O1284   1.766       .  S
C1276      O1289   1.258       .  A
C1276      C1837   1.470   1_554  S
O1277      C1287   1.277       .  A
O1277     Al1279   1.993       .  S
O1278      C1291   1.274       .  A
O1278     Al1288   1.988       .  S
Al1279     O1292   1.862       .  S
Al1279     O1289   1.877       .  S
Al1279     O1284   1.752       .  S
O1280      C1287   1.258       .  A
O1280     Al1288   1.870       .  S
O1281      C1290   1.253       .  A
O1281     Al1288   1.860       .  S
O1282     Al1288   1.995       .  S
O1283      C1290   1.278       .  A
O1284     Al1288   1.755       .  S
O1285      C1286   1.258       .  A
C1286      C1492   1.464       .  S
C1287      C1482   1.477       .  S
C1290      C1462   1.479       .  S
C1291      O1292   1.252       .  A
C1291      C1535   1.475       .  S
O1293      C1620   1.272       .  A
O1293     Al1925   1.965   1_556  S
C1294      O1304   1.273       .  A
C1294      O1295   1.257       .  A
C1294      C1545   1.473       .  S
O1295     Al1297   1.868       .  S
O1296      C1298   1.279       .  A
O1296     Al1297   1.969       .  S
Al1297     O1305   1.976       .  S
Al1297     O1931   1.874       .  S
Al1297     O1618   1.765       .  S
C1298      O1935   1.261       .  A
C1298      C2056   1.476   1_545  S
O1299      C1309   1.279       .  A
O1299     Al1301   2.008       .  S
O1300      C1313   1.274       .  A
O1300     Al1310   1.979       .  S
Al1301     O1917   1.965   1_544  S
Al1301     O1938   1.877       .  S
Al1301     O2247   1.867   1_554  S
Al1301     O1306   1.767   1_554  S
O1302      C1309   1.255       .  A
O1302     Al1310   1.868       .  S
O1303      C1312   1.255       .  A
O1303     Al1310   1.862       .  S
O1304     Al1622   1.968       .  S
O1305      C1624   1.275       .  A
O1306     Al1609   1.765       .  S
O1306     Al1310   1.752   1_556  S
O1307      C1308   1.255       .  A
O1307     Al1921   1.874       .  S
C1308      O1605   1.272       .  A
C1308      C1452   1.464       .  S
C1309      C1442   1.491       .  S
Al1310     O1616   1.968   1_554  S
O1311      C1922   1.261       .  A
O1311     Al2237   1.867       .  S
C1312      O1617   1.275   1_554  A
C1312      C1495   1.480       .  S
C1313      O1938   1.255       .  A
C1313      C2046   1.467       .  S
O1314      C1937   1.255       .  A
O1314     Al1925   1.877       .  S
O1315      C1330   1.275       .  A
O1315     Al1323   1.962       .  S
C1316      O1326   1.279       .  A
C1316      O1317   1.256       .  A
C1316      C1485   1.486       .  S
O1317     Al1319   1.861       .  S
O1318      C1320   1.276       .  A
O1318     Al1319   1.969       .  S
Al1319     O1327   1.991       .  S
Al1319     O1329   1.870       .  S
Al1319     O1328   1.764       .  S
C1320      O1333   1.258       .  A
C1320      C1425   1.470       .  S
O1321      C1331   1.275       .  A
O1321     Al1323   1.985       .  S
O1322      C1335   1.276       .  A
O1322     Al1332   1.993       .  S
Al1323     O1336   1.863       .  S
Al1323     O1333   1.873       .  S
Al1323     O1328   1.754       .  S
O1324      C1331   1.258       .  A
O1324     Al1332   1.877       .  S
O1325      C1334   1.254       .  A
O1325     Al1332   1.859       .  S
O1326     Al1332   2.001       .  S
O1327      C1334   1.278       .  A
O1328     Al1332   1.757       .  S
O1329      C1330   1.258       .  A
C1330      C2036   1.468       .  S
C1331      C1402   1.479       .  S
C1334      C1555   1.482       .  S
C1335      O1336   1.253       .  A
C1335      C1435   1.471       .  S
O1337      C1352   1.273       .  A
C1338      O1348   1.278       .  A
C1338      O1339   1.256       .  A
C1338      C1405   1.480       .  S
O1339     Al1341   1.861       .  S
O1340      C1342   1.275       .  A
O1340     Al1341   1.963       .  S
Al1341     O1349   1.978       .  S
Al1341     O1350   1.757       .  S
C1342      O1355   1.257       .  A
C1342      C1382   1.461       .  S
O1343      C1353   1.278       .  A
O1343     Al1345   1.998       .  S
O1344      C1357   1.275       .  A
O1344     Al1354   1.994       .  S
Al1345     O1358   1.863       .  S
Al1345     O1355   1.862       .  S
Al1345     O1350   1.758       .  S
O1346      C1353   1.258       .  A
O1346     Al1354   1.870       .  S
O1347      C1356   1.256       .  A
O1347     Al1354   1.870       .  S
O1348     Al1354   1.998       .  S
O1349      C1356   1.276       .  A
O1350     Al1354   1.760       .  S
O1351      C1352   1.257   1_455  A
C1352      C1515   1.463       .  S
C1353      C1472   1.483       .  S
C1356      C1455   1.477       .  S
C1357      O1358   1.251       .  A
C1357      C1704   1.470       .  S
O1359      C1374   1.272       .  A
C1360      O1370   1.275       .  A
C1360      O1361   1.255       .  A
C1360      C1445   1.469       .  S
O1361     Al1363   1.865       .  S
O1362      C1364   1.279       .  A
O1362     Al1363   1.968       .  S
Al1363     O1371   1.995       .  S
Al1363     O1373   1.876       .  S
Al1363     O1372   1.767       .  S
C1364      O1377   1.258       .  A
C1364      C1395   1.476       .  S
O1365      C1375   1.276       .  A
O1365     Al1367   1.987       .  S
O1366      C1379   1.275       .  A
O1366     Al1376   1.988       .  S
Al1367     O1380   1.860       .  S
Al1367     O1377   1.862       .  S
Al1367     O1372   1.754       .  S
O1368      C1375   1.258       .  A
O1368     Al1376   1.874       .  S
O1369      C1378   1.253       .  A
O1369     Al1376   1.859       .  S
O1370     Al1376   1.987       .  S
O1371      C1378   1.279       .  A
O1372     Al1376   1.757       .  S
C1374      C1465   1.470       .  S
C1375      C1505   1.474       .  S
C1378      C1415   1.482       .  S
C1379      O1380   1.251       .  A
C1379      C1385   1.478       .  S
C1381      C1386   1.400       .  A
C1381      H1387   1.083       .  S
C1382      C1383   1.391       .  A
C1383      C1384   1.392       .  A
C1383      H1388   1.084       .  S
C1384      H1389   1.083       .  S
C1385      C1386   1.400       .  A
C1386      H1390   1.083       .  S
C1391      C1396   1.403   1_455  A
C1391      H1397   1.083       .  S
C1392      C1669   1.470   1_554  S
C1392      C1393   1.409       .  A
C1393      H1710   1.081   1_554  S
C1394      C1395   1.395       .  A
C1394      H1399   1.083       .  S
C1395      C1396   1.416       .  A
C1396      H1400   1.083       .  S
H1398      C1705   1.081       .  S
C1401      C1402   1.402       .  A
C1401      C1406   1.395       .  A
C1401      H1407   1.083       .  S
C1402      C1403   1.409       .  A
C1403      C1404   1.406       .  A
C1403      H1408   1.082       .  S
C1404      C1405   1.404       .  A
C1404      H1409   1.082       .  S
C1405      C1406   1.407       .  A
C1406      H1410   1.084       .  S
C1411      C1412   1.392       .  A
C1411      C1416   1.392       .  A
C1411      H1417   1.083       .  S
C1412      C1954   1.468   1_545  S
C1412      C1413   1.409       .  A
C1413      C1414   1.403       .  A
C1413      H2042   1.083   1_545  S
C1414      C1415   1.401       .  A
C1414      H1419   1.082       .  S
C1415      C1416   1.415       .  A
C1416      H1420   1.083       .  S
H1418      C2037   1.083       .  S
C1421      C1422   1.402       .  A
C1421      C1426   1.401       .  A
C1421      H1427   1.083       .  S
C1422      C1937   1.467       .  S
C1422      C2047   1.402       .  A
C1423      C2046   1.402       .  A
C1423      C2048   1.395   1_545  A
C1423      H1428   1.078       .  S
C1424      C2047   1.395       .  A
C1424      C1425   1.400       .  A
C1424      H1429   1.084       .  S
C1425      C1426   1.407       .  A
C1426      H1430   1.084       .  S
C1431      C1432   1.414       .  A
C1431      C1436   1.403       .  A
C1431      H2061   1.083       .  S
C1432      C1922   1.476       .  S
C1432      C1433   1.396       .  A
C1433      C1434   1.392       .  A
C1433      H1438   1.083       .  S
C1434      C1435   1.409       .  A
C1434      H1439   1.083       .  S
C1435      C1436   1.396       .  A
C1436      H1440   1.083       .  S
H1437      C2055   1.083       .  S
C1441      C1442   1.414       .  A
C1441      C1446   1.395       .  A
C1441      H1447   1.083       .  S
C1442      C1443   1.405       .  A
C1443      C1444   1.407       .  A
C1443      H1448   1.083       .  S
C1444      C1445   1.409       .  A
C1444      H1449   1.083       .  S
C1445      C1446   1.394       .  A
C1446      H1450   1.084       .  S
C1451      C1452   1.403       .  A
C1451      C1456   1.398       .  A
C1451      H1457   1.084       .  S
C1452      C1453   1.397       .  A
C1453      C1454   1.399       .  A
C1453      H1770   1.083       .  S
C1454      C1455   1.411       .  A
C1454      H1459   1.083       .  S
C1455      C1456   1.403       .  A
C1456      H1460   1.083       .  S
H1458      C1765   1.083   1_554  S
C1461      C1462   1.401       .  A
C1461      C1466   1.405       .  A
C1461      H1467   1.082       .  S
C1462      C1463   1.412       .  A
C1463      C1464   1.388       .  A
C1463      H1468   1.083       .  S
C1464      C1465   1.393       .  A
C1464      H1469   1.084       .  S
C1465      C1466   1.411       .  A
C1471      C1472   1.408       .  A
C1471      C1788   1.408       .  A
C1471      H1477   1.081       .  S
C1472      C1473   1.405       .  A
C1473      C1474   1.395       .  A
C1473      H1478   1.083       .  S
C1474      C1787   1.404       .  A
C1474      H1479   1.084       .  S
C1475      C1786   1.404   1_554  A
C1475      C1476   1.406       .  A
C1476      C1783   1.408       .  A
C1476      H1480   1.083       .  S
C1481      C1482   1.400       .  A
C1481      C1486   1.394       .  A
C1481      H1487   1.083       .  S
C1482      C1483   1.410       .  A
C1483      C1484   1.409       .  A
C1483      H1488   1.083       .  S
C1484      C1485   1.406       .  A
C1484      H1489   1.083       .  S
C1485      C1486   1.408       .  A
C1486      H1490   1.083       .  S
C1491      C1492   1.394       .  A
C1491      C1496   1.394       .  A
C1491      H1497   1.083       .  S
C1492      C1493   1.406       .  A
C1493      C1494   1.400       .  A
C1493      H1498   1.083   1_554  S
C1494      C1495   1.403       .  A
C1494      H1811   1.083   1_554  S
C1495      C1496   1.413       .  A
C1496      H1500   1.083       .  S
H1499      C1806   1.083       .  S
C1501      C1502   1.408       .  A
C1501      C1506   1.396       .  A
C1501      H1507   1.083       .  S
C1502      C1503   1.406       .  A
C1503      C1504   1.405       .  A
C1503      H1508   1.082       .  S
C1504      C1505   1.407       .  A
C1504      H1509   1.083       .  S
C1505      C1506   1.401       .  A
C1506      H1510   1.083       .  S
C1511      C1512   1.409       .  A
C1511      C1516   1.400       .  A
C1511      H1517   1.083       .  S
C1512      C1513   1.403       .  A
C1513      C1514   1.397       .  A
C1513      H1518   1.083       .  S
C1514      C1515   1.402       .  A
C1514      H1519   1.084       .  S
C1515      C1516   1.399       .  A
C1516      H1520   1.083       .  S
C1521      C1522   1.405       .  A
C1521      C1526   1.402       .  A
C1521      H1527   1.083       .  S
C1522      C1523   1.404       .  A
C1523      C1524   1.397       .  A
C1523      H1528   1.079       .  S
C1524      C1525   1.401       .  A
C1524      H1529   1.084       .  S
C1525      C1588   1.470       .  S
C1525      C1526   1.404       .  A
C1526      H1530   1.083       .  S
C1531      C1532   1.411       .  A
C1531      C1536   1.403       .  A
C1531      H1537   1.083       .  S
C1532      C1533   1.394       .  A
C1533      C1534   1.390       .  A
C1533      H1538   1.084       .  S
C1534      C1535   1.411       .  A
C1534      H1539   1.083       .  S
C1535      C1536   1.399       .  A
C1536      H1540   1.083       .  S
C1541      C1542   1.410       .  A
C1541      C1546   1.395       .  A
C1541      H1547   1.083       .  S
C1542      C1543   1.398       .  A
C1543      C1544   1.404       .  A
C1543      H1548   1.083       .  S
C1544      C1545   1.412       .  A
C1544      H1549   1.083       .  S
C1545      C1546   1.395       .  A
C1546      H1550   1.083       .  S
C1551      C1552   1.394       .  A
C1551      C1556   1.393       .  A
C1551      H1557   1.083       .  S
C1552      C1553   1.409       .  A
C1553      C1554   1.402       .  A
C1553      H1558   1.083       .  S
C1554      C1555   1.401       .  A
C1554      H1559   1.083       .  S
C1555      C1556   1.414       .  A
C1556      H1560   1.083       .  S
O1561      C1576   1.273       .  A
O1561     Al1569   1.951       .  S
C1562      O1572   1.275       .  A
C1562      O1563   1.256       .  A
C1562      C1814   1.484       .  S
O1563     Al1565   1.871       .  S
O1564      C1566   1.272       .  A
O1564     Al1565   1.945       .  S
Al1565     O1573   1.975       .  S
Al1565     O1575   1.869       .  S
Al1565     O1574   1.764       .  S
C1566      O1579   1.258       .  A
C1566      C1844   1.469       .  S
O1567      C1577   1.279       .  A
O1567     Al1569   1.994       .  S
O1568      C1581   1.271       .  A
O1568     Al1578   1.976       .  S
Al1569     O1582   1.880       .  S
Al1569     O1579   1.871       .  S
Al1569     O1574   1.763       .  S
O1570      C1577   1.259       .  A
O1570     Al1578   1.868       .  S
O1571      C1580   1.257       .  A
O1571     Al1578   1.873       .  S
O1572     Al1578   1.986       .  S
O1573      C1580   1.277       .  A
O1574     Al1578   1.766       .  S
O1575      C1576   1.257       .  A
C1576      C1864   1.469       .  S
C1577      C1854   1.475       .  S
C1580      C1824   1.473       .  S
C1581      O1582   1.252       .  A
C1581      C1834   1.474       .  S
O1583      C1598   1.275       .  A
O1583     Al1591   1.961       .  S
C1584      O1594   1.278       .  A
C1584      O1585   1.257       .  A
C1584      C1787   1.479       .  S
O1585     Al1587   1.868       .  S
O1586      C1588   1.276       .  A
O1586     Al1587   1.972       .  S
Al1587     O1595   1.998       .  S
Al1587     O1597   1.869       .  S
Al1587     O1596   1.766       .  S
C1588      O1601   1.258       .  A
O1589      C1599   1.277       .  A
O1589     Al1591   1.993       .  S
O1590      C1603   1.274       .  A
O1590     Al1600   1.988       .  S
Al1591     O1604   1.862       .  S
Al1591     O1601   1.877       .  S
Al1591     O1596   1.752       .  S
O1592      C1599   1.258       .  A
O1592     Al1600   1.870       .  S
O1593      C1602   1.253       .  A
O1593     Al1600   1.860       .  S
O1594     Al1600   1.995       .  S
O1595      C1602   1.278       .  A
O1596     Al1600   1.755       .  S
O1597      C1598   1.258       .  A
C1598      C1804   1.464       .  S
C1599      C1794   1.477       .  S
C1602      C1774   1.479       .  S
C1603      O1604   1.252       .  A
C1603      C1847   1.475       .  S
O1605     Al2237   1.965       .  S
C1606      O1616   1.273       .  A
C1606      O1607   1.257       .  A
C1606      C1857   1.473       .  S
O1607     Al1609   1.868       .  S
O1608      C1610   1.279       .  A
O1608     Al1609   1.969       .  S
Al1609     O1617   1.976       .  S
Al1609     O2243   1.874       .  S
C1610      O2247   1.261       .  A
C1610      C2368   1.476   1_545  S
O1611      C1621   1.279       .  A
O1611     Al1613   2.008       .  S
O1612      C1625   1.274       .  A
O1612     Al1622   1.979       .  S
Al1613     O2229   1.965   1_545  S
Al1613     O2250   1.877       .  S
Al1613     O1935   1.867       .  S
Al1613     O1618   1.767       .  S
O1614      C1621   1.255       .  A
O1614     Al1622   1.868       .  S
O1615      C1624   1.255       .  A
O1615     Al1622   1.862       .  S
O1618     Al1622   1.752       .  S
O1619      C1620   1.255       .  A
O1619     Al2233   1.874       .  S
C1620      C1764   1.464       .  S
C1621      C1754   1.491       .  S
O1623      C2234   1.261       .  A
O1623     Al1925   1.867   1_556  S
C1624      C1807   1.480       .  S
C1625      O2250   1.255       .  A
C1625      C2358   1.467       .  S
O1626      C2249   1.255       .  A
O1626     Al2237   1.877       .  S
O1627      C1642   1.275       .  A
O1627     Al1635   1.962       .  S
C1628      O1638   1.279       .  A
C1628      O1629   1.256       .  A
C1628      C1797   1.486       .  S
O1629     Al1631   1.861       .  S
O1630      C1632   1.276       .  A
O1630     Al1631   1.969       .  S
Al1631     O1639   1.991       .  S
Al1631     O1641   1.870       .  S
Al1631     O1640   1.764       .  S
C1632      O1645   1.258       .  A
C1632      C1737   1.470       .  S
O1633      C1643   1.275       .  A
O1633     Al1635   1.985       .  S
O1634      C1647   1.276       .  A
O1634     Al1644   1.993       .  S
Al1635     O1648   1.863       .  S
Al1635     O1645   1.873       .  S
Al1635     O1640   1.754       .  S
O1636      C1643   1.258       .  A
O1636     Al1644   1.877       .  S
O1637      C1646   1.254       .  A
O1637     Al1644   1.859       .  S
O1638     Al1644   2.001       .  S
O1639      C1646   1.278       .  A
O1640     Al1644   1.757       .  S
O1641      C1642   1.258       .  A
C1642      C2348   1.468       .  S
C1643      C1714   1.479       .  S
C1646      C1867   1.482       .  S
C1647      O1648   1.253       .  A
C1647      C1747   1.471       .  S
O1649      C1664   1.273       .  A
C1650      O1660   1.278       .  A
C1650      O1651   1.256       .  A
C1650      C1717   1.480       .  S
O1651     Al1653   1.861       .  S
O1652      C1654   1.275       .  A
O1652     Al1653   1.963       .  S
Al1653     O1661   1.978       .  S
Al1653     O1662   1.757       .  S
C1654      O1667   1.257       .  A
C1654      C1694   1.461       .  S
O1655      C1665   1.278       .  A
O1655     Al1657   1.998       .  S
O1656      C1669   1.275       .  A
O1656     Al1666   1.994       .  S
Al1657     O1670   1.863       .  S
Al1657     O1667   1.862       .  S
Al1657     O1662   1.758       .  S
O1658      C1665   1.258       .  A
O1658     Al1666   1.870       .  S
O1659      C1668   1.256       .  A
O1659     Al1666   1.870       .  S
O1660     Al1666   1.998       .  S
O1661      C1668   1.276       .  A
O1662     Al1666   1.760       .  S
O1663      C1664   1.257   1_455  A
C1664      C1827   1.463       .  S
C1665      C1784   1.483       .  S
C1668      C1767   1.477       .  S
C1669      O1670   1.251       .  A
O1671      C1686   1.272       .  A
C1672      O1682   1.275       .  A
C1672      O1673   1.255       .  A
C1672      C1757   1.469       .  S
O1673     Al1675   1.865       .  S
O1674      C1676   1.279       .  A
O1674     Al1675   1.968       .  S
Al1675     O1683   1.995       .  S
Al1675     O1685   1.876       .  S
Al1675     O1684   1.767       .  S
C1676      O1689   1.258       .  A
C1676      C1707   1.476       .  S
O1677      C1687   1.276       .  A
O1677     Al1679   1.987       .  S
O1678      C1691   1.275       .  A
O1678     Al1688   1.988       .  S
Al1679     O1692   1.860       .  S
Al1679     O1689   1.862       .  S
Al1679     O1684   1.754       .  S
O1680      C1687   1.258       .  A
O1680     Al1688   1.874       .  S
O1681      C1690   1.253       .  A
O1681     Al1688   1.859       .  S
O1682     Al1688   1.987       .  S
O1683      C1690   1.279       .  A
O1684     Al1688   1.757       .  S
C1686      C1777   1.470       .  S
C1687      C1817   1.474       .  S
C1690      C1727   1.482       .  S
C1691      O1692   1.251       .  A
C1691      C1697   1.478       .  S
C1693      C1698   1.400       .  A
C1693      H1699   1.083       .  S
C1694      C1695   1.391       .  A
C1695      C1696   1.392       .  A
C1695      H1700   1.084       .  S
C1696      H1701   1.083       .  S
C1697      C1698   1.400       .  A
C1698      H1702   1.083       .  S
C1703      C1708   1.403   1_455  A
C1703      H1709   1.083       .  S
C1704      C1705   1.409       .  A
C1706      C1707   1.395       .  A
C1706      H1711   1.083       .  S
C1707      C1708   1.416       .  A
C1708      H1712   1.083       .  S
C1713      C1714   1.402       .  A
C1713      C1718   1.395       .  A
C1713      H1719   1.083       .  S
C1714      C1715   1.409       .  A
C1715      C1716   1.406       .  A
C1715      H1720   1.082       .  S
C1716      C1717   1.404       .  A
C1716      H1721   1.082       .  S
C1717      C1718   1.407       .  A
C1718      H1722   1.084       .  S
C1723      C1724   1.392       .  A
C1723      C1728   1.392       .  A
C1723      H1729   1.083       .  S
C1724      C2266   1.468   1_545  S
C1724      C1725   1.409       .  A
C1725      C1726   1.403       .  A
C1725      H2354   1.083   1_545  S
C1726      C1727   1.401       .  A
C1726      H1731   1.082       .  S
C1727      C1728   1.415       .  A
C1728      H1732   1.083       .  S
H1730      C2349   1.083       .  S
C1733      C1734   1.402       .  A
C1733      C1738   1.401       .  A
C1733      H1739   1.083       .  S
C1734      C2249   1.467       .  S
C1734      C2359   1.402       .  A
C1735      C2358   1.402       .  A
C1735      C2360   1.395   1_545  A
C1735      H1740   1.078       .  S
C1736      C2359   1.395       .  A
C1736      C1737   1.400       .  A
C1736      H1741   1.084       .  S
C1737      C1738   1.407       .  A
C1738      H1742   1.084       .  S
C1743      C1744   1.414       .  A
C1743      C1748   1.403       .  A
C1743      H2373   1.083       .  S
C1744      C2234   1.476       .  S
C1744      C1745   1.396       .  A
C1745      C1746   1.392       .  A
C1745      H1750   1.083       .  S
C1746      C1747   1.409       .  A
C1746      H1751   1.083       .  S
C1747      C1748   1.396       .  A
C1748      H1752   1.083       .  S
H1749      C2367   1.083       .  S
C1753      C1754   1.414       .  A
C1753      C1758   1.395       .  A
C1753      H1759   1.083       .  S
C1754      C1755   1.405       .  A
C1755      C1756   1.407       .  A
C1755      H1760   1.083       .  S
C1756      C1757   1.409       .  A
C1756      H1761   1.083       .  S
C1757      C1758   1.394       .  A
C1758      H1762   1.084       .  S
C1763      C1764   1.403       .  A
C1763      C1768   1.398       .  A
C1763      H1769   1.084       .  S
C1764      C1765   1.397       .  A
C1765      C1766   1.399       .  A
C1766      C1767   1.411       .  A
C1766      H1771   1.083       .  S
C1767      C1768   1.403       .  A
C1768      H1772   1.083       .  S
C1773      C1774   1.401       .  A
C1773      C1778   1.405       .  A
C1773      H1779   1.082       .  S
C1774      C1775   1.412       .  A
C1775      C1776   1.388       .  A
C1775      H1780   1.083       .  S
C1776      C1777   1.393       .  A
C1776      H1781   1.084       .  S
C1777      C1778   1.411       .  A
C1783      C1784   1.408   1_554  A
C1783      H1789   1.081       .  S
C1784      C1785   1.405       .  A
C1785      C1786   1.395       .  A
C1785      H1790   1.083       .  S
C1786      H1791   1.084       .  S
C1787      C1788   1.406       .  A
C1788      H1792   1.083       .  S
C1793      C1794   1.400       .  A
C1793      C1798   1.394       .  A
C1793      H1799   1.083       .  S
C1794      C1795   1.410       .  A
C1795      C1796   1.409       .  A
C1795      H1800   1.083       .  S
C1796      C1797   1.406       .  A
C1796      H1801   1.083       .  S
C1797      C1798   1.408       .  A
C1798      H1802   1.083       .  S
C1803      C1804   1.394       .  A
C1803      C1808   1.394       .  A
C1803      H1809   1.083       .  S
C1804      C1805   1.406       .  A
C1805      C1806   1.400       .  A
C1805      H1810   1.083       .  S
C1806      C1807   1.403       .  A
C1807      C1808   1.413       .  A
C1808      H1812   1.083       .  S
C1813      C1814   1.408       .  A
C1813      C1818   1.396       .  A
C1813      H1819   1.083       .  S
C1814      C1815   1.406       .  A
C1815      C1816   1.405       .  A
C1815      H1820   1.082       .  S
C1816      C1817   1.407       .  A
C1816      H1821   1.083       .  S
C1817      C1818   1.401       .  A
C1818      H1822   1.083       .  S
C1823      C1824   1.409       .  A
C1823      C1828   1.400       .  A
C1823      H1829   1.083       .  S
C1824      C1825   1.403       .  A
C1825      C1826   1.397       .  A
C1825      H1830   1.083       .  S
C1826      C1827   1.402       .  A
C1826      H1831   1.084       .  S
C1827      C1828   1.399       .  A
C1828      H1832   1.083       .  S
C1833      C1834   1.405       .  A
C1833      C1838   1.402       .  A
C1833      H1839   1.083       .  S
C1834      C1835   1.404       .  A
C1835      C1836   1.397       .  A
C1835      H1840   1.079       .  S
C1836      C1837   1.401       .  A
C1836      H1841   1.084       .  S
C1837      C1838   1.404       .  A
C1838      H1842   1.083       .  S
C1843      C1844   1.411       .  A
C1843      C1848   1.403       .  A
C1843      H1849   1.083       .  S
C1844      C1845   1.394       .  A
C1845      C1846   1.390       .  A
C1845      H1850   1.084       .  S
C1846      C1847   1.411       .  A
C1846      H1851   1.083       .  S
C1847      C1848   1.399       .  A
C1848      H1852   1.083       .  S
C1853      C1854   1.410       .  A
C1853      C1858   1.395       .  A
C1853      H1859   1.083       .  S
C1854      C1855   1.398       .  A
C1855      C1856   1.404       .  A
C1855      H1860   1.083       .  S
C1856      C1857   1.412       .  A
C1856      H1861   1.083       .  S
C1857      C1858   1.395       .  A
C1858      H1862   1.083       .  S
C1863      C1864   1.394       .  A
C1863      C1868   1.393       .  A
C1863      H1869   1.083       .  S
C1864      C1865   1.409       .  A
C1865      C1866   1.402       .  A
C1865      H1870   1.083       .  S
C1866      C1867   1.401       .  A
C1866      H1871   1.083       .  S
C1867      C1868   1.414       .  A
C1868      H1872   1.083       .  S
O1873      C1888   1.273       .  A
O1873     Al1881   1.951       .  S
C1874      O1884   1.275       .  A
C1874      O1875   1.256       .  A
C1874      C2126   1.484       .  S
O1875     Al1877   1.871       .  S
O1876      C1878   1.272       .  A
O1876     Al1877   1.945       .  S
Al1877     O1885   1.975       .  S
Al1877     O1887   1.869       .  S
Al1877     O1886   1.764       .  S
C1878      O1891   1.258       .  A
C1878      C2156   1.469       .  S
O1879      C1889   1.279       .  A
O1879     Al1881   1.994       .  S
O1880      C1893   1.271       .  A
O1880     Al1890   1.976       .  S
Al1881     O1894   1.880       .  S
Al1881     O1891   1.871       .  S
Al1881     O1886   1.763       .  S
O1882      C1889   1.259       .  A
O1882     Al1890   1.868       .  S
O1883      C1892   1.257       .  A
O1883     Al1890   1.873       .  S
O1884     Al1890   1.986       .  S
O1885      C1892   1.277       .  A
O1886     Al1890   1.766       .  S
O1887      C1888   1.257       .  A
C1888      C2176   1.469       .  S
C1889      C2166   1.475       .  S
C1892      C2136   1.473       .  S
C1893      O1894   1.252       .  A
C1893      C2146   1.474       .  S
O1895      C1910   1.275       .  A
O1895     Al1903   1.961       .  S
C1896      O1906   1.278       .  A
C1896      O1897   1.257       .  A
C1896      C2099   1.479       .  S
O1897     Al1899   1.868       .  S
O1898      C1900   1.276       .  A
O1898     Al1899   1.972       .  S
Al1899     O1907   1.998       .  S
Al1899     O1909   1.869       .  S
Al1899     O1908   1.766       .  S
C1900      O1913   1.258       .  A
C1900      C2461   1.470   1_554  S
O1901      C1911   1.277       .  A
O1901     Al1903   1.993       .  S
O1902      C1915   1.274       .  A
O1902     Al1912   1.988       .  S
Al1903     O1916   1.862       .  S
Al1903     O1913   1.877       .  S
Al1903     O1908   1.752       .  S
O1904      C1911   1.258       .  A
O1904     Al1912   1.870       .  S
O1905      C1914   1.253       .  A
O1905     Al1912   1.860       .  S
O1906     Al1912   1.995       .  S
O1907      C1914   1.278       .  A
O1908     Al1912   1.755       .  S
O1909      C1910   1.258       .  A
C1910      C2116   1.464       .  S
C1911      C2106   1.477       .  S
C1914      C2086   1.479       .  S
C1915      O1916   1.252       .  A
C1915      C2159   1.475       .  S
O1917      C2244   1.272       .  A
C1918      O1928   1.273       .  A
C1918      O1919   1.257       .  A
C1918      C2169   1.473       .  S
O1919     Al1921   1.868       .  S
O1920      C1922   1.279       .  A
O1920     Al1921   1.969       .  S
Al1921     O1929   1.976       .  S
Al1921     O2242   1.765       .  S
O1923      C1933   1.279       .  A
O1923     Al1925   2.008       .  S
O1924      C1937   1.274       .  A
O1924     Al1934   1.979       .  S
Al1925     O1930   1.767   1_554  S
O1926      C1933   1.255       .  A
O1926     Al1934   1.868       .  S
O1927      C1936   1.255       .  A
O1927     Al1934   1.862       .  S
O1928     Al2246   1.968       .  S
O1929      C2248   1.275       .  A
O1930     Al2233   1.765       .  S
O1930     Al1934   1.752   1_556  S
O1931      C1932   1.255   1_545  A
C1932      O2229   1.272       .  A
C1932      C2076   1.464       .  S
C1933      C2066   1.491       .  S
Al1934     O2240   1.968   1_554  S
C1936      O2241   1.275   1_554  A
C1936      C2119   1.480       .  S
O1939      C1954   1.275       .  A
O1939     Al1947   1.962       .  S
C1940      O1950   1.279       .  A
C1940      O1941   1.256       .  A
C1940      C2109   1.486       .  S
O1941     Al1943   1.861       .  S
O1942      C1944   1.276       .  A
O1942     Al1943   1.969       .  S
Al1943     O1951   1.991       .  S
Al1943     O1953   1.870       .  S
Al1943     O1952   1.764       .  S
C1944      O1957   1.258       .  A
C1944      C2049   1.470       .  S
O1945      C1955   1.275       .  A
O1945     Al1947   1.985       .  S
O1946      C1959   1.276       .  A
O1946     Al1956   1.993       .  S
Al1947     O1960   1.863       .  S
Al1947     O1957   1.873       .  S
Al1947     O1952   1.754       .  S
O1948      C1955   1.258       .  A
O1948     Al1956   1.877       .  S
O1949      C1958   1.254       .  A
O1949     Al1956   1.859       .  S
O1950     Al1956   2.001       .  S
O1951      C1958   1.278       .  A
O1952     Al1956   1.757       .  S
O1953      C1954   1.258       .  A
C1955      C2026   1.479       .  S
C1958      C2179   1.482       .  S
C1959      O1960   1.253       .  A
C1959      C2059   1.471       .  S
O1961      C1976   1.273       .  A
C1962      O1972   1.278       .  A
C1962      O1963   1.256       .  A
C1962      C2029   1.480       .  S
O1963     Al1965   1.861       .  S
O1964      C1966   1.275       .  A
O1964     Al1965   1.963       .  S
Al1965     O1973   1.978       .  S
Al1965     O1974   1.757       .  S
C1966      O1979   1.257       .  A
C1966      C2006   1.461       .  S
O1967      C1977   1.278       .  A
O1967     Al1969   1.998       .  S
O1968      C1981   1.275       .  A
O1968     Al1978   1.994       .  S
Al1969     O1982   1.863       .  S
Al1969     O1979   1.862       .  S
Al1969     O1974   1.758       .  S
O1970      C1977   1.258       .  A
O1970     Al1978   1.870       .  S
O1971      C1980   1.256       .  A
O1971     Al1978   1.870       .  S
O1972     Al1978   1.998       .  S
O1973      C1980   1.276       .  A
O1974     Al1978   1.760       .  S
O1975      C1976   1.257   1_455  A
C1976      C2139   1.463       .  S
C1977      C2096   1.483       .  S
C1980      C2079   1.477       .  S
C1981      O1982   1.251       .  A
C1981      C2328   1.470       .  S
O1983      C1998   1.272       .  A
C1984      O1994   1.275       .  A
C1984      O1985   1.255       .  A
C1984      C2069   1.469       .  S
O1985     Al1987   1.865       .  S
O1986      C1988   1.279       .  A
O1986     Al1987   1.968       .  S
Al1987     O1995   1.995       .  S
Al1987     O1997   1.876       .  S
Al1987     O1996   1.767       .  S
C1988      O2001   1.258       .  A
C1988      C2019   1.476       .  S
O1989      C1999   1.276       .  A
O1989     Al1991   1.987       .  S
O1990      C2003   1.275       .  A
O1990     Al2000   1.988       .  S
Al1991     O2004   1.860       .  S
Al1991     O2001   1.862       .  S
Al1991     O1996   1.754       .  S
O1992      C1999   1.258       .  A
O1992     Al2000   1.874       .  S
O1993      C2002   1.253       .  A
O1993     Al2000   1.859       .  S
O1994     Al2000   1.987       .  S
O1995      C2002   1.279       .  A
O1996     Al2000   1.757       .  S
C1998      C2089   1.470       .  S
C1999      C2129   1.474       .  S
C2002      C2039   1.482       .  S
C2003      O2004   1.251       .  A
C2003      C2009   1.478       .  S
C2005      C2010   1.400       .  A
C2005      H2011   1.083       .  S
C2006      C2007   1.391       .  A
C2007      C2008   1.392       .  A
C2007      H2012   1.084       .  S
C2008      H2013   1.083       .  S
C2009      C2010   1.400       .  A
C2010      H2014   1.083       .  S
C2015      C2020   1.403   1_455  A
C2015      H2021   1.083       .  S
C2016      C2293   1.470   1_554  S
C2016      C2017   1.409       .  A
C2017      H2334   1.081   1_554  S
C2018      C2019   1.395       .  A
C2018      H2023   1.083       .  S
C2019      C2020   1.416       .  A
C2020      H2024   1.083       .  S
H2022      C2329   1.081       .  S
C2025      C2026   1.402       .  A
C2025      C2030   1.395       .  A
C2025      H2031   1.083       .  S
C2026      C2027   1.409       .  A
C2027      C2028   1.406       .  A
C2027      H2032   1.082       .  S
C2028      C2029   1.404       .  A
C2028      H2033   1.082       .  S
C2029      C2030   1.407       .  A
C2030      H2034   1.084       .  S
C2035      C2036   1.392       .  A
C2035      C2040   1.392       .  A
C2035      H2041   1.083       .  S
C2036      C2037   1.409       .  A
C2037      C2038   1.403       .  A
C2038      C2039   1.401       .  A
C2038      H2043   1.082       .  S
C2039      C2040   1.415       .  A
C2040      H2044   1.083       .  S
C2045      C2046   1.402   1_565  A
C2045      C2050   1.401       .  A
C2045      H2051   1.083       .  S
C2047      H2052   1.078       .  S
C2048      C2049   1.400       .  A
C2048      H2053   1.084   1_565  S
C2049      C2050   1.407       .  A
C2050      H2054   1.084       .  S
C2055      C2056   1.414       .  A
C2055      C2060   1.403       .  A
C2056      C2057   1.396       .  A
C2057      C2058   1.392       .  A
C2057      H2062   1.083   1_565  S
C2058      C2059   1.409       .  A
C2058      H2063   1.083       .  S
C2059      C2060   1.396       .  A
C2060      H2064   1.083       .  S
C2065      C2066   1.414       .  A
C2065      C2070   1.395       .  A
C2065      H2071   1.083       .  S
C2066      C2067   1.405       .  A
C2067      C2068   1.407       .  A
C2067      H2072   1.083       .  S
C2068      C2069   1.409       .  A
C2068      H2073   1.083       .  S
C2069      C2070   1.394       .  A
C2070      H2074   1.084       .  S
C2075      C2076   1.403       .  A
C2075      C2080   1.398       .  A
C2075      H2081   1.084       .  S
C2076      C2077   1.397       .  A
C2077      C2078   1.399       .  A
C2077      H2394   1.083       .  S
C2078      C2079   1.411       .  A
C2078      H2083   1.083       .  S
C2079      C2080   1.403       .  A
C2080      H2084   1.083       .  S
H2082      C2389   1.083   1_554  S
C2085      C2086   1.401       .  A
C2085      C2090   1.405       .  A
C2085      H2091   1.082       .  S
C2086      C2087   1.412       .  A
C2087      C2088   1.388       .  A
C2087      H2092   1.083       .  S
C2088      C2089   1.393       .  A
C2088      H2093   1.084       .  S
C2089      C2090   1.411       .  A
C2095      C2096   1.408       .  A
C2095      C2412   1.408       .  A
C2095      H2101   1.081       .  S
C2096      C2097   1.405       .  A
C2097      C2098   1.395       .  A
C2097      H2102   1.083       .  S
C2098      C2411   1.404       .  A
C2098      H2103   1.084       .  S
C2099      C2410   1.404   1_554  A
C2099      C2100   1.406       .  A
C2100      C2407   1.408       .  A
C2100      H2104   1.083       .  S
C2105      C2106   1.400       .  A
C2105      C2110   1.394       .  A
C2105      H2111   1.083       .  S
C2106      C2107   1.410       .  A
C2107      C2108   1.409       .  A
C2107      H2112   1.083       .  S
C2108      C2109   1.406       .  A
C2108      H2113   1.083       .  S
C2109      C2110   1.408       .  A
C2110      H2114   1.083       .  S
C2115      C2116   1.394       .  A
C2115      C2120   1.394       .  A
C2115      H2121   1.083       .  S
C2116      C2117   1.406       .  A
C2117      C2118   1.400       .  A
C2117      H2122   1.083   1_554  S
C2118      C2119   1.403       .  A
C2118      H2435   1.083   1_554  S
C2119      C2120   1.413       .  A
C2120      H2124   1.083       .  S
H2123      C2430   1.083       .  S
C2125      C2126   1.408       .  A
C2125      C2130   1.396       .  A
C2125      H2131   1.083       .  S
C2126      C2127   1.406       .  A
C2127      C2128   1.405       .  A
C2127      H2132   1.082       .  S
C2128      C2129   1.407       .  A
C2128      H2133   1.083       .  S
C2129      C2130   1.401       .  A
C2130      H2134   1.083       .  S
C2135      C2136   1.409       .  A
C2135      C2140   1.400       .  A
C2135      H2141   1.083       .  S
C2136      C2137   1.403       .  A
C2137      C2138   1.397       .  A
C2137      H2142   1.083       .  S
C2138      C2139   1.402       .  A
C2138      H2143   1.084       .  S
C2139      C2140   1.399       .  A
C2140      H2144   1.083       .  S
C2145      C2146   1.405       .  A
C2145      C2150   1.402       .  A
C2145      H2151   1.083       .  S
C2146      C2147   1.404       .  A
C2147      C2148   1.397       .  A
C2147      H2152   1.079       .  S
C2148      C2149   1.401       .  A
C2148      H2153   1.084       .  S
C2149      C2212   1.470       .  S
C2149      C2150   1.404       .  A
C2150      H2154   1.083       .  S
C2155      C2156   1.411       .  A
C2155      C2160   1.403       .  A
C2155      H2161   1.083       .  S
C2156      C2157   1.394       .  A
C2157      C2158   1.390       .  A
C2157      H2162   1.084       .  S
C2158      C2159   1.411       .  A
C2158      H2163   1.083       .  S
C2159      C2160   1.399       .  A
C2160      H2164   1.083       .  S
C2165      C2166   1.410       .  A
C2165      C2170   1.395       .  A
C2165      H2171   1.083       .  S
C2166      C2167   1.398       .  A
C2167      C2168   1.404       .  A
C2167      H2172   1.083       .  S
C2168      C2169   1.412       .  A
C2168      H2173   1.083       .  S
C2169      C2170   1.395       .  A
C2170      H2174   1.083       .  S
C2175      C2176   1.394       .  A
C2175      C2180   1.393       .  A
C2175      H2181   1.083       .  S
C2176      C2177   1.409       .  A
C2177      C2178   1.402       .  A
C2177      H2182   1.083       .  S
C2178      C2179   1.401       .  A
C2178      H2183   1.083       .  S
C2179      C2180   1.414       .  A
C2180      H2184   1.083       .  S
O2185      C2200   1.273       .  A
O2185     Al2193   1.951       .  S
C2186      O2196   1.275       .  A
C2186      O2187   1.256       .  A
C2186      C2438   1.484       .  S
O2187     Al2189   1.871       .  S
O2188      C2190   1.272       .  A
O2188     Al2189   1.945       .  S
Al2189     O2197   1.975       .  S
Al2189     O2199   1.869       .  S
Al2189     O2198   1.764       .  S
C2190      O2203   1.258       .  A
C2190      C2468   1.469       .  S
O2191      C2201   1.279       .  A
O2191     Al2193   1.994       .  S
O2192      C2205   1.271       .  A
O2192     Al2202   1.976       .  S
Al2193     O2206   1.880       .  S
Al2193     O2203   1.871       .  S
Al2193     O2198   1.763       .  S
O2194      C2201   1.259       .  A
O2194     Al2202   1.868       .  S
O2195      C2204   1.257       .  A
O2195     Al2202   1.873       .  S
O2196     Al2202   1.986       .  S
O2197      C2204   1.277       .  A
O2198     Al2202   1.766       .  S
O2199      C2200   1.257       .  A
C2200      C2488   1.469       .  S
C2201      C2478   1.475       .  S
C2204      C2448   1.473       .  S
C2205      O2206   1.252       .  A
C2205      C2458   1.474       .  S
O2207      C2222   1.275       .  A
O2207     Al2215   1.961       .  S
C2208      O2218   1.278       .  A
C2208      O2209   1.257       .  A
C2208      C2411   1.479       .  S
O2209     Al2211   1.868       .  S
O2210      C2212   1.276       .  A
O2210     Al2211   1.972       .  S
Al2211     O2219   1.998       .  S
Al2211     O2221   1.869       .  S
Al2211     O2220   1.766       .  S
C2212      O2225   1.258       .  A
O2213      C2223   1.277       .  A
O2213     Al2215   1.993       .  S
O2214      C2227   1.274       .  A
O2214     Al2224   1.988       .  S
Al2215     O2228   1.862       .  S
Al2215     O2225   1.877       .  S
Al2215     O2220   1.752       .  S
O2216      C2223   1.258       .  A
O2216     Al2224   1.870       .  S
O2217      C2226   1.253       .  A
O2217     Al2224   1.860       .  S
O2218     Al2224   1.995       .  S
O2219      C2226   1.278       .  A
O2220     Al2224   1.755       .  S
O2221      C2222   1.258       .  A
C2222      C2428   1.464       .  S
C2223      C2418   1.477       .  S
C2226      C2398   1.479       .  S
C2227      O2228   1.252       .  A
C2227      C2471   1.475       .  S
C2230      O2240   1.273       .  A
C2230      O2231   1.257       .  A
C2230      C2481   1.473       .  S
O2231     Al2233   1.868       .  S
O2232      C2234   1.279       .  A
O2232     Al2233   1.969       .  S
Al2233     O2241   1.976       .  S
O2235      C2245   1.279       .  A
O2235     Al2237   2.008       .  S
O2236      C2249   1.274       .  A
O2236     Al2246   1.979       .  S
Al2237     O2242   1.767       .  S
O2238      C2245   1.255       .  A
O2238     Al2246   1.868       .  S
O2239      C2248   1.255       .  A
O2239     Al2246   1.862       .  S
O2242     Al2246   1.752       .  S
O2243      C2244   1.255   1_545  A
C2244      C2388   1.464       .  S
C2245      C2378   1.491       .  S
C2248      C2431   1.480       .  S
O2251      C2266   1.275       .  A
O2251     Al2259   1.962       .  S
C2252      O2262   1.279       .  A
C2252      O2253   1.256       .  A
C2252      C2421   1.486       .  S
O2253     Al2255   1.861       .  S
O2254      C2256   1.276       .  A
O2254     Al2255   1.969       .  S
Al2255     O2263   1.991       .  S
Al2255     O2265   1.870       .  S
Al2255     O2264   1.764       .  S
C2256      O2269   1.258       .  A
C2256      C2361   1.470       .  S
O2257      C2267   1.275       .  A
O2257     Al2259   1.985       .  S
O2258      C2271   1.276       .  A
O2258     Al2268   1.993       .  S
Al2259     O2272   1.863       .  S
Al2259     O2269   1.873       .  S
Al2259     O2264   1.754       .  S
O2260      C2267   1.258       .  A
O2260     Al2268   1.877       .  S
O2261      C2270   1.254       .  A
O2261     Al2268   1.859       .  S
O2262     Al2268   2.001       .  S
O2263      C2270   1.278       .  A
O2264     Al2268   1.757       .  S
O2265      C2266   1.258       .  A
C2267      C2338   1.479       .  S
C2270      C2491   1.482       .  S
C2271      O2272   1.253       .  A
C2271      C2371   1.471       .  S
O2273      C2288   1.273       .  A
C2274      O2284   1.278       .  A
C2274      O2275   1.256       .  A
C2274      C2341   1.480       .  S
O2275     Al2277   1.861       .  S
O2276      C2278   1.275       .  A
O2276     Al2277   1.963       .  S
Al2277     O2285   1.978       .  S
Al2277     O2286   1.757       .  S
C2278      O2291   1.257       .  A
C2278      C2318   1.461       .  S
O2279      C2289   1.278       .  A
O2279     Al2281   1.998       .  S
O2280      C2293   1.275       .  A
O2280     Al2290   1.994       .  S
Al2281     O2294   1.863       .  S
Al2281     O2291   1.862       .  S
Al2281     O2286   1.758       .  S
O2282      C2289   1.258       .  A
O2282     Al2290   1.870       .  S
O2283      C2292   1.256       .  A
O2283     Al2290   1.870       .  S
O2284     Al2290   1.998       .  S
O2285      C2292   1.276       .  A
O2286     Al2290   1.760       .  S
O2287      C2288   1.257   1_455  A
C2288      C2451   1.463       .  S
C2289      C2408   1.483       .  S
C2292      C2391   1.477       .  S
C2293      O2294   1.251       .  A
O2295      C2310   1.272       .  A
C2296      O2306   1.275       .  A
C2296      O2297   1.255       .  A
C2296      C2381   1.469       .  S
O2297     Al2299   1.865       .  S
O2298      C2300   1.279       .  A
O2298     Al2299   1.968       .  S
Al2299     O2307   1.995       .  S
Al2299     O2309   1.876       .  S
Al2299     O2308   1.767       .  S
C2300      O2313   1.258       .  A
C2300      C2331   1.476       .  S
O2301      C2311   1.276       .  A
O2301     Al2303   1.987       .  S
O2302      C2315   1.275       .  A
O2302     Al2312   1.988       .  S
Al2303     O2316   1.860       .  S
Al2303     O2313   1.862       .  S
Al2303     O2308   1.754       .  S
O2304      C2311   1.258       .  A
O2304     Al2312   1.874       .  S
O2305      C2314   1.253       .  A
O2305     Al2312   1.859       .  S
O2306     Al2312   1.987       .  S
O2307      C2314   1.279       .  A
O2308     Al2312   1.757       .  S
C2310      C2401   1.470       .  S
C2311      C2441   1.474       .  S
C2314      C2351   1.482       .  S
C2315      O2316   1.251       .  A
C2315      C2321   1.478       .  S
C2317      C2322   1.400       .  A
C2317      H2323   1.083       .  S
C2318      C2319   1.391       .  A
C2319      C2320   1.392       .  A
C2319      H2324   1.084       .  S
C2320      H2325   1.083       .  S
C2321      C2322   1.400       .  A
C2322      H2326   1.083       .  S
C2327      C2332   1.403   1_455  A
C2327      H2333   1.083       .  S
C2328      C2329   1.409       .  A
C2330      C2331   1.395       .  A
C2330      H2335   1.083       .  S
C2331      C2332   1.416       .  A
C2332      H2336   1.083       .  S
C2337      C2338   1.402       .  A
C2337      C2342   1.395       .  A
C2337      H2343   1.083       .  S
C2338      C2339   1.409       .  A
C2339      C2340   1.406       .  A
C2339      H2344   1.082       .  S
C2340      C2341   1.404       .  A
C2340      H2345   1.082       .  S
C2341      C2342   1.407       .  A
C2342      H2346   1.084       .  S
C2347      C2348   1.392       .  A
C2347      C2352   1.392       .  A
C2347      H2353   1.083       .  S
C2348      C2349   1.409       .  A
C2349      C2350   1.403       .  A
C2350      C2351   1.401       .  A
C2350      H2355   1.082       .  S
C2351      C2352   1.415       .  A
C2352      H2356   1.083       .  S
C2357      C2358   1.402   1_565  A
C2357      C2362   1.401       .  A
C2357      H2363   1.083       .  S
C2359      H2364   1.078       .  S
C2360      C2361   1.400       .  A
C2360      H2365   1.084   1_565  S
C2361      C2362   1.407       .  A
C2362      H2366   1.084       .  S
C2367      C2368   1.414       .  A
C2367      C2372   1.403       .  A
C2368      C2369   1.396       .  A
C2369      C2370   1.392       .  A
C2369      H2374   1.083   1_565  S
C2370      C2371   1.409       .  A
C2370      H2375   1.083       .  S
C2371      C2372   1.396       .  A
C2372      H2376   1.083       .  S
C2377      C2378   1.414       .  A
C2377      C2382   1.395       .  A
C2377      H2383   1.083       .  S
C2378      C2379   1.405       .  A
C2379      C2380   1.407       .  A
C2379      H2384   1.083       .  S
C2380      C2381   1.409       .  A
C2380      H2385   1.083       .  S
C2381      C2382   1.394       .  A
C2382      H2386   1.084       .  S
C2387      C2388   1.403       .  A
C2387      C2392   1.398       .  A
C2387      H2393   1.084       .  S
C2388      C2389   1.397       .  A
C2389      C2390   1.399       .  A
C2390      C2391   1.411       .  A
C2390      H2395   1.083       .  S
C2391      C2392   1.403       .  A
C2392      H2396   1.083       .  S
C2397      C2398   1.401       .  A
C2397      C2402   1.405       .  A
C2397      H2403   1.082       .  S
C2398      C2399   1.412       .  A
C2399      C2400   1.388       .  A
C2399      H2404   1.083       .  S
C2400      C2401   1.393       .  A
C2400      H2405   1.084       .  S
C2401      C2402   1.411       .  A
C2407      C2408   1.408   1_554  A
C2407      H2413   1.081       .  S
C2408      C2409   1.405       .  A
C2409      C2410   1.395       .  A
C2409      H2414   1.083       .  S
C2410      H2415   1.084       .  S
C2411      C2412   1.406       .  A
C2412      H2416   1.083       .  S
C2417      C2418   1.400       .  A
C2417      C2422   1.394       .  A
C2417      H2423   1.083       .  S
C2418      C2419   1.410       .  A
C2419      C2420   1.409       .  A
C2419      H2424   1.083       .  S
C2420      C2421   1.406       .  A
C2420      H2425   1.083       .  S
C2421      C2422   1.408       .  A
C2422      H2426   1.083       .  S
C2427      C2428   1.394       .  A
C2427      C2432   1.394       .  A
C2427      H2433   1.083       .  S
C2428      C2429   1.406       .  A
C2429      C2430   1.400       .  A
C2429      H2434   1.083       .  S
C2430      C2431   1.403       .  A
C2431      C2432   1.413       .  A
C2432      H2436   1.083       .  S
C2437      C2438   1.408       .  A
C2437      C2442   1.396       .  A
C2437      H2443   1.083       .  S
C2438      C2439   1.406       .  A
C2439      C2440   1.405       .  A
C2439      H2444   1.082       .  S
C2440      C2441   1.407       .  A
C2440      H2445   1.083       .  S
C2441      C2442   1.401       .  A
C2442      H2446   1.083       .  S
C2447      C2448   1.409       .  A
C2447      C2452   1.400       .  A
C2447      H2453   1.083       .  S
C2448      C2449   1.403       .  A
C2449      C2450   1.397       .  A
C2449      H2454   1.083       .  S
C2450      C2451   1.402       .  A
C2450      H2455   1.084       .  S
C2451      C2452   1.399       .  A
C2452      H2456   1.083       .  S
C2457      C2458   1.405       .  A
C2457      C2462   1.402       .  A
C2457      H2463   1.083       .  S
C2458      C2459   1.404       .  A
C2459      C2460   1.397       .  A
C2459      H2464   1.079       .  S
C2460      C2461   1.401       .  A
C2460      H2465   1.084       .  S
C2461      C2462   1.404       .  A
C2462      H2466   1.083       .  S
C2467      C2468   1.411       .  A
C2467      C2472   1.403       .  A
C2467      H2473   1.083       .  S
C2468      C2469   1.394       .  A
C2469      C2470   1.390       .  A
C2469      H2474   1.084       .  S
C2470      C2471   1.411       .  A
C2470      H2475   1.083       .  S
C2471      C2472   1.399       .  A
C2472      H2476   1.083       .  S
C2477      C2478   1.410       .  A
C2477      C2482   1.395       .  A
C2477      H2483   1.083       .  S
C2478      C2479   1.398       .  A
C2479      C2480   1.404       .  A
C2479      H2484   1.083       .  S
C2480      C2481   1.412       .  A
C2480      H2485   1.083       .  S
C2481      C2482   1.395       .  A
C2482      H2486   1.083       .  S
C2487      C2488   1.394       .  A
C2487      C2492   1.393       .  A
C2487      H2493   1.083       .  S
C2488      C2489   1.409       .  A
C2489      C2490   1.402       .  A
C2489      H2494   1.083       .  S
C2490      C2491   1.401       .  A
C2490      H2495   1.083       .  S
C2491      C2492   1.414       .  A
C2492      H2496   1.083       .  S
