geometry optimzed in LAMMPS
_audit_creation_date              2020-11-30 
_audit_creation_method            'lammps2cif' 
_symmetry_space_group_name_H-M    'P1' 
_symmetry_Int_Tables_number       1 
_symmetry_cell_setting            triclinic 
loop_ 
_symmetry_equiv_pos_as_xyz 
  x,y,z 
_cell_length_a                    35.57044681 
_cell_length_b                    35.48128012399402 
_cell_length_c                    26.269593464415784 
_cell_angle_alpha                 90.07153271633058 
_cell_angle_beta                  89.99295482197275 
_cell_angle_gamma                 90.40475751033365 
loop_ 
_atom_site_label 
_atom_site_type_symbol 
_atom_site_fract_x 
_atom_site_fract_y 
_atom_site_fract_z 
_atom_site_charge 
O1          O  0.35353578  0.19235000  0.44483748    -0.85900
O2          O  0.32198435  0.25869187  0.41271856    -0.83000
C3          C  0.30655155  0.28263493  0.38413156     0.97500
O4          O  0.28776327  0.27160210  0.34591463    -0.83000
O5          O  0.33737329  0.23926704  0.27707233    -0.85700
C6          C  0.36024932  0.21585527  0.25848392     1.02100
O7          O  0.36018369  0.18241556  0.27445813    -0.78400
O8          O  0.38412142  0.18586984  0.37329911    -0.78600
C9          C  0.38398840  0.19328399  0.42017826     1.02000
O10         O  0.28143544  0.15527339  0.43185435    -0.85900
O11         O  0.24953497  0.22355953  0.41068395    -0.83000
C12         C  0.22623214  0.21623344  0.37579918     0.97500
O13         O  0.23730674  0.20858311  0.33141083    -0.83000
O14         O  0.28430506  0.17971607  0.25789447    -0.85600
C15         C  0.28703292  0.14440147  0.26359809     1.02000
O16         O  0.30310911  0.13060872  0.30205461    -0.78400
O17         O  0.33094476  0.12780058  0.40037877    -0.78600
C18         C  0.30096356  0.12606414  0.42622663     1.02000
Cr19       Cr  0.30231380  0.20657295  0.42003423     1.93700
Cr20       Cr  0.28843563  0.22278773  0.30685130     1.93200
Cr21       Cr  0.34215449  0.15955705  0.33913879     1.39100
O22         O  0.31074332  0.19626958  0.35513389    -1.23700
C23         C  0.25045312  0.03344910  0.00111146     0.02500
C24         C  0.25752809  0.04228013  0.05242951    -0.13600
C25         C  0.25111989  0.07877206  0.07086901     0.00000
C26         C  0.23694412  0.10610641  0.03772315    -0.12100
C27         C  0.22790763  0.09729482  0.98710351     0.02500
C28         C  0.23522172  0.06094890  0.96877587    -0.11600
H29         H  0.26912752  0.02114608  0.07748314     0.08100
H30         H  0.23356779  0.13472479  0.05128299     0.05700
H31         H  0.22960670  0.05417434  0.92927627     0.05500
C32         C  0.47777576  0.24791953  0.00037716     0.02500
C33         C  0.46906324  0.24420479  0.05229031    -0.13600
C34         C  0.43376029  0.25516057  0.07077044     0.00000
C35         C  0.40701915  0.26907349  0.03669766    -0.12100
C36         C  0.41510897  0.27274066  0.98481691     0.02500
C37         C  0.45077787  0.26245863  0.96664134    -0.11600
H38         H  0.48961770  0.23241264  0.07814579     0.08100
H39         H  0.37902927  0.27565845  0.05030898     0.05700
H40         H  0.45716119  0.26484980  0.92642771     0.05500
O41         O  0.28874074  0.86218795  0.93512681    -0.85900
O42         O  0.25532708  0.79371520  0.92159057    -0.83000
C43         C  0.23048668  0.79976231  0.88834734     0.97500
O44         O  0.23949349  0.80776493  0.84321721    -0.83000
O45         O  0.28397246  0.83228250  0.76288773    -0.85700
C46         C  0.28925242  0.86759001  0.76489207     1.02100
O47         O  0.30697486  0.88251583  0.80132476    -0.78400
O48         O  0.33663299  0.88936038  0.89770363    -0.78600
C49         C  0.30690857  0.89166240  0.92410039     1.02000
O50         O  0.36082329  0.82660831  0.94557492    -0.85900
O51         O  0.32758030  0.75885715  0.91960979    -0.83000
C52         C  0.30927971  0.73446189  0.89461556     0.97500
O53         O  0.28819396  0.74483887  0.85850037    -0.83000
O54         O  0.33499271  0.77224026  0.78329652    -0.85600
C55         C  0.35874369  0.79357928  0.76213299     1.02000
O56         O  0.36145644  0.82781675  0.77516483    -0.78400
O57         O  0.38867477  0.82908007  0.87176498    -0.78600
C58         C  0.39005600  0.82303958  0.91882146     1.02000
Cr59       Cr  0.30868672  0.81109918  0.92554002     1.93700
Cr60       Cr  0.28862072  0.79151413  0.81534422     1.93200
Cr61       Cr  0.34612213  0.85458969  0.83854162     1.39100
O62         O  0.31424883  0.81923660  0.85949358    -1.23700
C63         C  0.47016372  0.75230207  0.50343475     0.02500
C64         C  0.44291073  0.73763707  0.47014529    -0.13600
C65         C  0.40739174  0.72726292  0.48863332     0.00000
C66         C  0.39934045  0.73115991  0.54052718    -0.12100
C67         C  0.42596920  0.74685720  0.57362991     0.02500
C68         C  0.46168666  0.75663331  0.55522353    -0.11600
H69         H  0.44877588  0.73574272  0.42973011     0.08100
H70         H  0.37120510  0.72500772  0.55431537     0.05700
H71         H  0.48201841  0.76970284  0.58051314     0.05500
C72         C  0.25570089  0.97927106  0.50304913     0.02500
C73         C  0.26236311  0.96934652  0.55399020    -0.13600
C74         C  0.25357057  0.93296984  0.57138474     0.00000
C75         C  0.23701877  0.90697671  0.53789089    -0.12100
C76         C  0.22941808  0.91667183  0.48718424     0.02500
C77         C  0.23911762  0.95285552  0.46977545    -0.11600
H78         H  0.27546956  0.98951660  0.57961881     0.08100
H79         H  0.23118405  0.87854914  0.55096345     0.05700
H80         H  0.23424660  0.96030613  0.43032636     0.05500
O81         O  0.63915807  0.80812039  0.44446585    -0.85900
O82         O  0.67139358  0.74095516  0.41312370    -0.83000
C83         C  0.68984575  0.71758150  0.38689095     0.97500
O84         O  0.70838689  0.72922985  0.34880104    -0.83000
O85         O  0.65779109  0.75892195  0.28036796    -0.85700
C86         C  0.63375753  0.78090462  0.26165663     1.02100
O87         O  0.63375291  0.81529771  0.27442409    -0.78400
O88         O  0.60929752  0.81566736  0.37253043    -0.78600
C89         C  0.60892255  0.80824387  0.41926879     1.02000
O90         O  0.71139383  0.84428672  0.43263796    -0.85900
O91         O  0.74317452  0.77666125  0.41156007    -0.83000
C92         C  0.76698913  0.78395233  0.37727024     0.97500
O93         O  0.75660382  0.79329974  0.33317255    -0.83000
O94         O  0.70931813  0.81950879  0.25694567    -0.85600
C95         C  0.70632093  0.85490952  0.26187359     1.02000
O96         O  0.69104542  0.86880120  0.30073963    -0.78400
O97         O  0.66389513  0.87394673  0.39829927    -0.78600
C98         C  0.69353563  0.87427393  0.42510726     1.02000
Cr99       Cr  0.69046492  0.79349559  0.42056061     1.93700
Cr100      Cr  0.70618717  0.77737493  0.30827581     1.93200
Cr101      Cr  0.65183233  0.84062642  0.33816350     1.39100
O102        O  0.68292674  0.80395941  0.35558674    -1.23700
C103        C  0.74117468  0.96901824  0.00143494     0.02500
C104        C  0.76133317  0.94306784  0.97138772    -0.13600
C105        C  0.77258694  0.90815950  0.99146781     0.00000
C106        C  0.76505945  0.90020784  0.04272986    -0.12100
C107        C  0.74779376  0.92667115  0.07458034     0.02500
C108        C  0.73521000  0.96074522  0.05341471    -0.11600
H109        H  0.76731548  0.94948119  0.93194650     0.08100
H110        H  0.77147234  0.87253099  0.05765046     0.05700
H111        H  0.72008388  0.98042073  0.07719647     0.05500
C112        C  0.52451433  0.75534226  0.99995799     0.02500
C113        C  0.53064217  0.75367513  0.05278775    -0.13600
C114        C  0.56545140  0.74218215  0.07245929     0.00000
C115        C  0.59423465  0.73266885  0.03838346    -0.12100
C116        C  0.58840079  0.73372373  0.98575473     0.02500
C117        C  0.55346011  0.74465320  0.96655092    -0.11600
H118        H  0.50883054  0.76299502  0.07854121     0.08100
H119        H  0.62212014  0.72647271  0.05259399     0.05700
H120        H  0.54946724  0.74662904  0.92576297     0.05500
O121        O  0.68599463  0.14085943  0.93914752    -0.85900
O122        O  0.75164963  0.17484078  0.90845733    -0.83000
C123        C  0.77517682  0.19253170  0.88161854     0.97500
O124        O  0.76413379  0.21130485  0.84349043    -0.83000
O125        O  0.73359036  0.16083968  0.77341883    -0.85700
C126        C  0.71082639  0.13737139  0.75399148     1.02100
O127        O  0.67713457  0.13636904  0.76904028    -0.78400
O128        O  0.67926447  0.11084334  0.86737010    -0.78600
C129        C  0.68761100  0.11049441  0.91403939     1.02000
O130        O  0.64881249  0.21282615  0.92834705    -0.85900
O131        O  0.71587594  0.24693678  0.90774603    -0.83000
C132        C  0.70807370  0.27033001  0.87315042     0.97500
O133        O  0.70029599  0.25931124  0.82873072    -0.83000
O134        O  0.67382614  0.21228128  0.75342455    -0.85600
C135        C  0.63858565  0.20951666  0.75899599     1.02000
O136        O  0.62481726  0.19306477  0.79734449    -0.78400
O137        O  0.62046575  0.16392325  0.89466479    -0.78600
C138        C  0.61940896  0.19354207  0.92157730     1.02000
Cr139      Cr  0.69969859  0.19313142  0.91597085     1.93700
Cr140      Cr  0.71600465  0.20902117  0.80343823     1.93200
Cr141      Cr  0.65318162  0.15342595  0.83376141     1.39100
O142        O  0.68959735  0.18530577  0.85090282    -1.23700
C143        C  0.52838829  0.23836187  0.49894597     0.02500
C144        C  0.55542294  0.24938411  0.46291513    -0.13600
C145        C  0.59168804  0.25958654  0.47849089     0.00000
C146        C  0.60096012  0.25835091  0.53040853    -0.12100
C147        C  0.57379190  0.24854389  0.56713049     0.02500
C148        C  0.53730989  0.23917920  0.55087034    -0.11600
H149        H  0.54852184  0.24911607  0.42275256     0.08100
H150        H  0.62976811  0.26357861  0.54181876     0.05700
H151        H  0.51620790  0.23078940  0.57847134     0.05500
C152        C  0.75553199  0.01405430  0.50406681     0.02500
C153        C  0.77481822  0.03925667  0.47171175    -0.13600
C154        C  0.78607476  0.07509619  0.48949066     0.00000
C155        C  0.77773807  0.08512348  0.53991000    -0.12100
C156        C  0.75978912  0.05991268  0.57296707     0.02500
C157        C  0.74834414  0.02451575  0.55469769    -0.11600
H158        H  0.77985734  0.03142168  0.43243157     0.08100
H159        H  0.78358998  0.11352458  0.55303143     0.05700
H160        H  0.73316813  0.00538619  0.57956932     0.05500
O161        O  0.78119855  0.34188207  0.42659608    -0.85900
O162        O  0.75118154  0.27192680  0.40677028    -0.83000
C163        C  0.72818305  0.27711058  0.37081808     0.97500
O164        O  0.73952361  0.28306611  0.32593339    -0.83000
O165        O  0.78776161  0.30855249  0.25015209    -0.85700
C166        C  0.78770281  0.34415397  0.25217093     1.02100
O167        O  0.79953942  0.36107215  0.29133193    -0.78400
O168        O  0.82709365  0.37239392  0.38901760    -0.78600
C169        C  0.79875801  0.37228905  0.41814379     1.02000
O170        O  0.85451290  0.30823155  0.44000827    -0.85900
O171        O  0.82499155  0.23951174  0.41190959    -0.83000
C172        C  0.80971482  0.21388452  0.38551062     0.97500
O173        O  0.79000625  0.22286793  0.34754399    -0.83000
O174        O  0.84178585  0.25357909  0.27875505    -0.85600
C175        C  0.86382729  0.27745401  0.25854955     1.02000
O176        O  0.86061517  0.31195650  0.26951518    -0.78400
O177        O  0.88426232  0.31731174  0.36797501    -0.78600
C178        C  0.88482312  0.31068371  0.41502694     1.02000
Cr179      Cr  0.80362641  0.29110590  0.41620736     1.93700
Cr180      Cr  0.79131352  0.26933450  0.30429104     1.93200
Cr181      Cr  0.84055481  0.33776796  0.33132855     1.39100
O182        O  0.81167000  0.29955145  0.35070235    -1.23700
C183        C  0.97560100  0.25682624  0.99537666     0.02500
C184        C  0.96886169  0.25831519  0.04809312    -0.13600
C185        C  0.93473742  0.24484945  0.06839743     0.00000
C186        C  0.90715369  0.23088016  0.03506358    -0.12100
C187        C  0.91361422  0.22882502  0.98250867     0.02500
C188        C  0.94836442  0.24095418  0.96295068    -0.11600
H189        H  0.99005934  0.27027071  0.07311336     0.08100
H190        H  0.87979579  0.22288770  0.04989740     0.05700
H191        H  0.95362335  0.23950138  0.92235417     0.05500
C192        C  0.75920867  0.46783666  0.99920122     0.02500
C193        C  0.74203574  0.44411993  0.96295328    -0.13600
C194        C  0.73016794  0.40773666  0.97661157     0.00000
C195        C  0.73538183  0.39538033  0.02666975    -0.12100
C196        C  0.75420483  0.41800118  0.06235909     0.02500
C197        C  0.76559607  0.45454018  0.04878361    -0.11600
H198        H  0.73878404  0.45361700  0.92400289     0.08100
H199        H  0.72734496  0.36682114  0.03688845     0.05700
H200        H  0.78031462  0.47214163  0.07614319     0.05500
O201        O  0.14705204  0.29524779  0.93248485    -0.85900
O202        O  0.21292051  0.25937549  0.91671644    -0.83000
C203        C  0.20424285  0.23507171  0.88353817     0.97500
O204        O  0.19750974  0.24474921  0.83830469    -0.83000
O205        O  0.17442680  0.29031839  0.75938189    -0.85700
C206        C  0.13937311  0.29540006  0.76292586     1.02100
O207        O  0.12561585  0.31316728  0.80005560    -0.78400
O208        O  0.12118314  0.34402536  0.89623470    -0.78600
C209        C  0.11815366  0.31372837  0.92130755     1.02000
O210        O  0.18708433  0.36683731  0.94242145    -0.85900
O211        O  0.25268710  0.32926696  0.91534167    -0.83000
C212        C  0.27525452  0.30974344  0.88922691     0.97500
O213        O  0.26323830  0.29070290  0.85172853    -0.83000
O214        O  0.23640966  0.34001848  0.77834235    -0.85600
C215        C  0.21483097  0.36355135  0.75752502     1.02000
O216        O  0.18109329  0.36664210  0.77182027    -0.78400
O217        O  0.18276609  0.39460859  0.86833995    -0.78600
C218        C  0.18977665  0.39610035  0.91517714     1.02000
Cr219      Cr  0.19908315  0.31351812  0.92183222     1.93700
Cr220      Cr  0.21594543  0.29354070  0.81052331     1.93200
Cr221      Cr  0.15536416  0.35222385  0.83614782     1.39100
O222        O  0.19022939  0.31977062  0.85597890    -1.23700
C223        C  0.25057211  0.48059456  0.50189015     0.02500
C224        C  0.24483991  0.46950471  0.55264094    -0.13600
C225        C  0.25850542  0.43499429  0.57017177     0.00000
C226        C  0.27808708  0.41140795  0.53708779    -0.12100
C227        C  0.28473866  0.42196668  0.48641519     0.02500
C228        C  0.27170019  0.45714820  0.46937938    -0.11600
H229        H  0.22779278  0.48658363  0.57776715     0.08100
H230        H  0.28567091  0.38346904  0.54997465     0.05700
H231        H  0.27645416  0.46541191  0.43018373     0.05500
C232        C  0.02886966  0.27077989  0.49871182     0.02500
C233        C  0.03853207  0.27501198  0.55021614    -0.13600
C234        C  0.07477318  0.26589554  0.56713698     0.00000
C235        C  0.10075948  0.25113867  0.53233986    -0.12100
C236        C  0.09117395  0.24597435  0.48093228     0.02500
C237        C  0.05536872  0.25658689  0.46413264    -0.11600
H238        H  0.01810550  0.28606601  0.57681019     0.08100
H239        H  0.12896658  0.24464296  0.54501397     0.05700
H240        H  0.04797202  0.25345850  0.42433511     0.05500
O241        O  0.18074667  0.64879118  0.45067694    -0.85900
O242        O  0.24511029  0.68402292  0.41737924    -0.83000
C243        C  0.26773835  0.70200088  0.38951678     0.97500
O244        O  0.25567350  0.72217484  0.35336901    -0.83000
O245        O  0.22652903  0.67197508  0.28328585    -0.85700
C246        C  0.20504393  0.64694987  0.26499541     1.02100
O247        O  0.17157868  0.64374661  0.28055907    -0.78400
O248        O  0.17643811  0.61938117  0.37836431    -0.78600
C249        C  0.18491962  0.61909466  0.42486207     1.02000
O250        O  0.14194419  0.71954419  0.44012819    -0.85900
O251        O  0.20811871  0.75535573  0.41912638    -0.83000
C252        C  0.19909289  0.77905475  0.38550904     0.97500
O253        O  0.19013391  0.76835360  0.34133709    -0.83000
O254        O  0.16435155  0.72058217  0.26559281    -0.85600
C255        C  0.12948806  0.71422240  0.27021476     1.02000
O256        O  0.11648723  0.69708561  0.30851230    -0.78400
O257        O  0.11519267  0.66943429  0.40683261    -0.78600
C258        C  0.11321177  0.69929326  0.43318815     1.02000
Cr259      Cr  0.19306910  0.70127881  0.42697832     1.93700
Cr260      Cr  0.20720685  0.71891594  0.31453955     1.93200
Cr261      Cr  0.14749570  0.65990793  0.34538196     1.39100
O262        O  0.18231874  0.69368595  0.36199289    -1.23700
C263        C  0.03212280  0.72705285  0.99559557     0.02500
C264        C  0.06027705  0.74286347  0.96464423    -0.13600
C265        C  0.09476121  0.75421788  0.98560584     0.00000
C266        C  0.10063257  0.75067888  0.03813717    -0.12100
C267        C  0.07274542  0.73515757  0.06970616     0.02500
C268        C  0.03834166  0.72363345  0.04827419    -0.11600
H269        H  0.05562209  0.74567866  0.92404873     0.08100
H270        H  0.12750193  0.75895721  0.05428433     0.05700
H271        H  0.01651591  0.71198780  0.07247639     0.05500
C272        C  0.24737643  0.53374538  0.00580175     0.02500
C273        C  0.23957663  0.54235670  0.05696547    -0.13600
C274        C  0.24971474  0.57750376  0.07734640     0.00000
C275        C  0.26880393  0.60372927  0.04703709    -0.12100
C276        C  0.27777456  0.59558623  0.99626401     0.02500
C277        C  0.26633177  0.56069292  0.97564920    -0.11600
H278        H  0.22466251  0.52217424  0.08061323     0.08100
H279        H  0.27486369  0.63146737  0.06245833     0.05700
H280        H  0.27131742  0.55488426  0.93573837     0.05500
O281        O  0.86136157  0.68092637  0.93802081    -0.85900
O282        O  0.82474395  0.74633440  0.91124423    -0.83000
C283        C  0.80391840  0.76925652  0.88794960     0.97500
O284        O  0.78198137  0.75705057  0.85366836    -0.83000
O285        O  0.82862430  0.73051564  0.77837326    -0.85700
C286        C  0.85298666  0.71018406  0.75711278     1.02100
O287        O  0.85501354  0.67554868  0.76791549    -0.78400
O288        O  0.88615305  0.67566832  0.86229394    -0.78600
C289        C  0.88939229  0.68325710  0.90876568     1.02000
O290        O  0.79032342  0.64183786  0.93520285    -0.85900
O291        O  0.75408971  0.70838947  0.91935717    -0.83000
C292        C  0.72796675  0.70134550  0.88806447     0.97500
O293        O  0.73537635  0.69140727  0.84299381    -0.83000
O294        O  0.77843097  0.66783243  0.75974174    -0.85600
C295        C  0.78412671  0.63263784  0.76231962     1.02000
O296        O  0.80262895  0.61895191  0.79870880    -0.78400
O297        O  0.83610624  0.61447208  0.89338570    -0.78600
C298        C  0.80897469  0.61279524  0.92470074     1.02000
Cr299      Cr  0.80797590  0.69341628  0.92096869     1.93700
Cr300      Cr  0.78321478  0.70949010  0.81178992     1.93200
Cr301      Cr  0.84256956  0.64876397  0.83272910     1.39100
O302        O  0.81094625  0.68350929  0.85507694    -1.23700
C303        C  0.74734805  0.51500912  0.50243032     0.02500
C304        C  0.75505781  0.52503531  0.55335334    -0.13600
C305        C  0.74573275  0.56102881  0.57192876     0.00000
C306        C  0.72820445  0.58667818  0.53926341    -0.12100
C307        C  0.72019342  0.57741570  0.48847883     0.02500
C308        C  0.73002660  0.54145272  0.47009843    -0.11600
H309        H  0.76873803  0.50502696  0.57823421     0.08100
H310        H  0.72226944  0.61487554  0.55293965     0.05700
H311        H  0.72495494  0.53433615  0.43054903     0.05500
C312        C  0.96865961  0.74943046  0.50312666     0.02500
C313        C  0.94104732  0.75661826  0.46644238    -0.13600
C314        C  0.90390347  0.76270641  0.48162624     0.00000
C315        C  0.89458864  0.76217291  0.53340194    -0.12100
C316        C  0.92218752  0.75606137  0.57055457     0.02500
C317        C  0.95937205  0.74976862  0.55495890    -0.11600
H318        H  0.94801191  0.75543883  0.42629835     0.08100
H319        H  0.86535110  0.76463660  0.54443383     0.05700
H320        H  0.98090023  0.74377001  0.58291090     0.05500
C321        C  0.87709481  0.72610312  0.71617929    -0.06700
C322        C  0.86703597  0.76062285  0.69389694    -0.17800
C323        C  0.88419892  0.77329416  0.64908918     0.10500
C324        C  0.91080124  0.75016490  0.62433156    -0.06600
C325        C  0.92340683  0.71764976  0.64920618    -0.17900
C326        C  0.90788604  0.70613527  0.69543785     0.10500
S327        S  0.87074882  0.81898048  0.62541141    -0.32800
S328        S  0.92884434  0.66572490  0.72541331    -0.32800
H329        H  0.92695295  0.68127454  0.77464204     0.28500
H330        H  0.90451621  0.82601863  0.59909100     0.28500
H331        H  0.84482656  0.77742549  0.71047315     0.19100
H332        H  0.94459281  0.70007938  0.63164561     0.19100
C333        C  0.77255588  0.60822933  0.71922401    -0.06700
C334        C  0.80088420  0.59119240  0.69009003    -0.17800
C335        C  0.79298473  0.57470191  0.64263973     0.10500
C336        C  0.75552277  0.57365885  0.62446840    -0.06600
C337        C  0.72694523  0.58886731  0.65517639    -0.17900
C338        C  0.73505177  0.60614176  0.70199968     0.10500
S339        S  0.83242820  0.55896675  0.60526525    -0.32800
S340        S  0.69650996  0.62553810  0.73774683    -0.32800
H341        H  0.71347643  0.62131879  0.78570404     0.28500
H342        H  0.81871919  0.57242432  0.55852135     0.28500
H343        H  0.82988130  0.59329235  0.70258671     0.19100
H344        H  0.69808767  0.58818494  0.64183683     0.19100
C345        C  0.99608535  0.71466196  0.97249805    -0.06700
C346        C  0.97524342  0.74103387  0.94468746    -0.17800
C347        C  0.94084321  0.73123375  0.92235838     0.10500
C348        C  0.92621257  0.69447851  0.92921312    -0.06600
C349        C  0.94689969  0.66805156  0.95687778    -0.17900
C350        C  0.98204906  0.67743407  0.97743702     0.10500
S351        S  0.91632265  0.76756427  0.88793933    -0.32800
S352        S  0.00824752  0.64016131  0.00709548    -0.32800
H353        H  0.04378360  0.65356272  0.99173802     0.28500
H354        H  0.89998423  0.74401498  0.85102545     0.28500
H355        H  0.98581366  0.76955103  0.94048759     0.19100
H356        H  0.93598497  0.63966502  0.96142735     0.19100
C357        C  0.08067509  0.73030454  0.12475036    -0.06700
C358        C  0.09245586  0.76188582  0.15307846    -0.17800
C359        C  0.10513123  0.75819512  0.20326319     0.10500
C360        C  0.10534602  0.72232368  0.22626678    -0.06600
C361        C  0.09100064  0.69123908  0.19940755    -0.17900
C362        C  0.07980902  0.69457731  0.14858073     0.10500
S363        S  0.12256918  0.79980336  0.23522453    -0.32800
S364        S  0.06965109  0.65150051  0.11476879    -0.32800
H365        H  0.08859410  0.66213777  0.06996794     0.28500
H366        H  0.11681661  0.78633437  0.28498593     0.28500
H367        H  0.09317735  0.78942422  0.13526332     0.19100
H368        H  0.09242876  0.66338982  0.21625840     0.19100
C369        C  0.23771174  0.58898843  0.12884529    -0.06700
C370        C  0.26522954  0.59877897  0.16488381    -0.17800
C371        C  0.25539241  0.61514200  0.21148821     0.10500
C372        C  0.21727702  0.62334127  0.22158752    -0.06600
C373        C  0.18967645  0.61156876  0.18650109    -0.17900
C374        C  0.19945687  0.59448939  0.14037150     0.10500
S375        S  0.29259242  0.62434875  0.25647362    -0.32800
S376        S  0.16308793  0.58334414  0.09457397    -0.32800
H377        H  0.13242228  0.58803124  0.12774512     0.28500
H378        H  0.27064954  0.61530919  0.29937898     0.28500
H379        H  0.29460848  0.59407771  0.15627795     0.19100
H380        H  0.16042953  0.61777227  0.19378683     0.19100
C381        C  0.00636658  0.73752078  0.48734614    -0.06700
C382        C  0.01451360  0.69892215  0.48840857    -0.17800
C383        C  0.04955603  0.68556496  0.47281892     0.10500
C384        C  0.07695490  0.71134558  0.45484327    -0.06600
C385        C  0.06881562  0.75007859  0.45466169    -0.17900
C386        C  0.03392838  0.76342668  0.47083249     0.10500
S387        S  0.05780192  0.63565118  0.47828134    -0.32800
S388        S  0.02611593  0.81359366  0.46836120    -0.32800
H389        H  0.99936243  0.81521163  0.50763989     0.28500
H390        H  0.09563122  0.63949710  0.49320520     0.28500
H391        H  0.99336689  0.67906621  0.50165398     0.19100
H392        H  0.08953838  0.77012012  0.44077322     0.19100
C393        C  0.19982916  0.58381330  0.44795436    -0.06700
C394        C  0.19604119  0.55013530  0.41998772    -0.17800
C395        C  0.21089922  0.51611731  0.43735036     0.10500
C396        C  0.23227635  0.51547568  0.48273492    -0.06600
C397        C  0.23521965  0.54873736  0.51160614    -0.17900
C398        C  0.21899448  0.58253569  0.49534229     0.10500
S399        S  0.19925131  0.47433968  0.40125483    -0.32800
S400        S  0.22400808  0.62242431  0.53737756    -0.32800
H401        H  0.24107359  0.64545954  0.50058209     0.28500
H402        H  0.19593249  0.45056429  0.44387131     0.28500
H403        H  0.18051847  0.54995125  0.38447297     0.19100
H404        H  0.25078697  0.54854551  0.54711056     0.19100
C405        C  0.08641831  0.27266465  0.62065667    -0.06700
C406        C  0.10284109  0.24297571  0.64798128    -0.17800
C407        C  0.11762872  0.24866258  0.69679744     0.10500
C408        C  0.11557528  0.28467833  0.71939450    -0.06600
C409        C  0.09717372  0.31374206  0.69352010    -0.17900
C410        C  0.08353937  0.30848726  0.64405272     0.10500
S411        S  0.13974106  0.20927117  0.72780002    -0.32800
S412        S  0.06684239  0.34968222  0.61112389    -0.32800
H413        H  0.08341510  0.34048839  0.56413136     0.28500
H414        H  0.13356545  0.22203021  0.77776779     0.28500
H415        H  0.10499251  0.21534250  0.63060479     0.19100
H416        H  0.09660216  0.34177112  0.71002483     0.19100
C417        C  0.24674616  0.42015104  0.62003121    -0.06700
C418        C  0.27311422  0.41719241  0.65956146    -0.17800
C419        C  0.26336456  0.40029446  0.70601407     0.10500
C420        C  0.22684633  0.38511049  0.71232487    -0.06600
C421        C  0.20046230  0.38884462  0.67284854    -0.17100
C422        C  0.21003015  0.40605258  0.62684015     0.10500
S423        S  0.29815476  0.39988429  0.75591145    -0.32800
S424        S  0.17595855  0.40776542  0.57577256    -0.32800
H425        H  0.14575268  0.39163287  0.60277529     0.28500
H426        H  0.27232833  0.40387788  0.79611859     0.28500
H427        H  0.30134329  0.42811325  0.65414283     0.19100
H428        H  0.17255309  0.37689872  0.67738175     0.19100
C429        C  0.20278766  0.43189785  0.93776960    -0.06700
C430        C  0.23996844  0.44300258  0.92825190    -0.17800
C431        C  0.25580441  0.47472044  0.95181877     0.10500
C432        C  0.23317962  0.49782921  0.98309949    -0.06600
C433        C  0.19546358  0.48706198  0.99158506    -0.17900
C434        C  0.18016581  0.45427854  0.96968905     0.10500
S435        S  0.30555173  0.48248355  0.94294109    -0.32800
S436        S  0.13163243  0.44306610  0.98334914    -0.32800
H437        H  0.12460933  0.42116928  0.93974810     0.28500
H438        H  0.31194949  0.49706025  0.99203415     0.28500
H439        H  0.25718944  0.42601804  0.90346310     0.19100
H440        H  0.17753883  0.50462286  0.01492543     0.19100
C441        C  0.77190774  0.50598758  0.98441466    -0.06700
C442        C  0.81057391  0.51324883  0.97933193    -0.17800
C443        C  0.82382314  0.54824154  0.96185676     0.10500
C444        C  0.79780688  0.57646662  0.94817795    -0.06600
C445        C  0.75920676  0.56939647  0.95506448    -0.17900
C446        C  0.74606138  0.53474346  0.97323100     0.10500
S447        S  0.87401935  0.55537726  0.95930474    -0.32800
S448        S  0.69594762  0.52885106  0.98079246    -0.32800
H449        H  0.69774916  0.50345240  0.02174540     0.28500
H450        H  0.87293246  0.59349879  0.97403607     0.28500
H451        H  0.83054506  0.49137608  0.98869205     0.19100
H452        H  0.73892362  0.59084501  0.94531023     0.19100
C453        C  0.01081383  0.27262806  0.97389283    -0.06700
C454        C  0.03594379  0.24811133  0.94998801    -0.17800
C455        C  0.07030745  0.26115783  0.93077116     0.10500
C456        C  0.08074863  0.29948676  0.93720857    -0.06600
C457        C  0.05489188  0.32436138  0.95921283    -0.17900
C458        C  0.01989797  0.31144592  0.97694207     0.10500
S459        S  0.09844139  0.22769046  0.89617470    -0.32800
S460        S  0.98780375  0.34590113  0.00211533    -0.32800
H461        H  0.95474104  0.32708729  0.98687598     0.28500
H462        H  0.11373622  0.25383153  0.86172693     0.28500
H463        H  0.02861943  0.21854616  0.94604749     0.19100
H464        H  0.06207620  0.35397983  0.96289800     0.19100
C465        C  0.89068986  0.26630700  0.21755444    -0.06700
C466        C  0.88878689  0.22965458  0.19722814    -0.17800
C467        C  0.90692023  0.22060089  0.15143885     0.10500
C468        C  0.92544247  0.24924082  0.12333249    -0.06600
C469        C  0.93078576  0.28456223  0.14618406    -0.17900
C470        C  0.91505488  0.29287754  0.19363024     0.10500
S471        S  0.90530070  0.17212957  0.13067124    -0.32800
S472        S  0.92721770  0.33811279  0.22063638    -0.32800
H473        H  0.93067614  0.32410653  0.27053921     0.28500
H474        H  0.93853851  0.17398975  0.10168935     0.28500
H475        H  0.87216883  0.20815101  0.21612888     0.19100
H476        H  0.94618315  0.30643370  0.12618118     0.19100
C477        C  0.76528506  0.40137710  0.11163768    -0.06700
C478        C  0.75126563  0.41653697  0.15725973    -0.17800
C479        C  0.75760539  0.39857635  0.20409628     0.10500
C480        C  0.77865486  0.36498474  0.20525481    -0.06600
C481        C  0.79338827  0.35060605  0.15968178    -0.17900
C482        C  0.78751649  0.36857371  0.11333309     0.10500
S483        S  0.73654804  0.41861984  0.26026382    -0.32800
S484        S  0.80981561  0.34840977  0.05789889    -0.32800
H485        H  0.81504361  0.38269739  0.03195501     0.28500
H486        H  0.72913667  0.38396021  0.28433967     0.28500
H487        H  0.73410720  0.44163503  0.15611960     0.19100
H488        H  0.81051548  0.32542593  0.16027953     0.19100
C489        C  0.78621182  0.40820547  0.44230982    -0.06700
C490        C  0.74748017  0.41481171  0.44810942    -0.17800
C491        C  0.73401707  0.44896244  0.46805991     0.10500
C492        C  0.75965499  0.47773113  0.48238704    -0.06600
C493        C  0.79830790  0.47101671  0.47728435    -0.17900
C494        C  0.81181984  0.43677169  0.45796653     0.10500
S495        S  0.68383283  0.45395350  0.47449155    -0.32800
S496        S  0.86211861  0.43100828  0.45610178    -0.32800
H497        H  0.86132416  0.39302766  0.47145694     0.28500
H498        H  0.68497631  0.47789878  0.51714203     0.28500
H499        H  0.72742544  0.39334048  0.43645964     0.19100
H500        H  0.81822657  0.49270737  0.48869447     0.19100
C501        C  0.92115350  0.30431865  0.44083145    -0.06700
C502        C  0.92342141  0.27501277  0.47661543    -0.17800
C503        C  0.95809430  0.26349250  0.49617758     0.10500
C504        C  0.99134114  0.28208115  0.48043331    -0.06600
C505        C  0.98895238  0.31238651  0.44638670    -0.17900
C506        C  0.95429870  0.32399350  0.42697874     0.10500
S507        S  0.95813608  0.22375405  0.53898221    -0.32800
S508        S  0.95420887  0.36467003  0.38587566    -0.32800
H509        H  0.91881213  0.37771550  0.40158867     0.28500
H510        H  0.99298527  0.20927173  0.52338691     0.28500
H511        H  0.89823293  0.25961085  0.48738803     0.19100
H512        H  0.01431052  0.32731179  0.43518091     0.19100
C513        C  0.80141488  0.10462667  0.45472057    -0.06700
C514        C  0.78322908  0.11110071  0.40818241    -0.17800
C515        C  0.78924239  0.14449573  0.38087422     0.10500
C516        C  0.81173684  0.17371322  0.40239112    -0.06600
C517        C  0.83341887  0.16511299  0.44553505    -0.17900
C518        C  0.82949666  0.13054783  0.47065585     0.10500
S519        S  0.76668631  0.14775437  0.31966728    -0.32800
S520        S  0.86072862  0.12158553  0.52331340    -0.32800
H521        H  0.85736764  0.08208078  0.52119779     0.28500
H522        H  0.79828926  0.16400743  0.29577137     0.28500
H523        H  0.76278841  0.09090386  0.39400127     0.19100
H524        H  0.85279968  0.18585212  0.46092857     0.19100
C525        C  0.68795263  0.27586849  0.38354246    -0.06700
C526        C  0.67348602  0.30643080  0.41101589    -0.17800
C527        C  0.64022164  0.30290055  0.43910129     0.10500
C528        C  0.62125870  0.26783774  0.44048512    -0.06600
C529        C  0.63400867  0.23824422  0.40966033    -0.17900
C530        C  0.66712765  0.24189688  0.38121409     0.10500
S531        S  0.62462475  0.34339844  0.47466848    -0.32800
S532        S  0.68340503  0.20091226  0.34748820    -0.32800
H533        H  0.70412978  0.22068161  0.31053225     0.28500
H534        H  0.58641638  0.33300545  0.47611039     0.28500
H535        H  0.68945180  0.33248715  0.41319030     0.19100
H536        H  0.61944461  0.21132008  0.41039789     0.19100
C537        C  0.81488902  0.19591795  0.89880679    -0.06700
C538        C  0.83515857  0.22837013  0.88443577    -0.17800
C539        C  0.86798239  0.23930711  0.90983209     0.10500
C540        C  0.88248785  0.21621838  0.94883150    -0.06600
C541        C  0.86446374  0.18176280  0.95955657    -0.17900
C542        C  0.83086520  0.17131607  0.93510162     0.10500
S543        S  0.88729893  0.28501313  0.89434082    -0.32800
S544        S  0.80904964  0.12658918  0.95060871    -0.32800
H545        H  0.83381028  0.11643728  0.98993315     0.28500
H546        H  0.89359340  0.29583207  0.94517668     0.28500
H547        H  0.82370869  0.24724747  0.85624451     0.19100
H548        H  0.87616803  0.16368291  0.98857424     0.19100
C549        C  0.70913412  0.31069348  0.88602299    -0.06700
C550        C  0.68020399  0.32495844  0.91662159    -0.17800
C551        C  0.68436814  0.35940561  0.94213935     0.10500
C552        C  0.71854090  0.37967667  0.93792584    -0.06600
C553        C  0.74608569  0.36697572  0.90387953    -0.17900
C554        C  0.74172078  0.33279684  0.87782620     0.10500
S555        S  0.64630460  0.37480595  0.98227621    -0.32800
S556        S  0.78068891  0.31686919  0.83984846    -0.32800
H557        H  0.75904384  0.29597722  0.80500575     0.28500
H558        H  0.65644260  0.41320142  0.98210576     0.28500
H559        H  0.65507866  0.30812963  0.92300190     0.19100
H560        H  0.77253361  0.38217392  0.90081218     0.19100
C561        C  0.72302338  0.11240992  0.71139458    -0.06700
C562        C  0.76165586  0.10995714  0.70051436    -0.17800
C563        C  0.77476753  0.09016984  0.65805476     0.10500
C564        C  0.74881400  0.07310558  0.62435392    -0.06600
C565        C  0.71054440  0.07336089  0.63660356    -0.17900
C566        C  0.69722908  0.09239227  0.67969447     0.10500
S567        S  0.82495691  0.08791525  0.64886737    -0.32800
S568        S  0.64698168  0.09228971  0.69042984    -0.32800
H569        H  0.63757220  0.06361913  0.65555232     0.28500
H570        H  0.82459775  0.05416159  0.62073430     0.28500
H571        H  0.78195662  0.12391403  0.72494650     0.19100
H572        H  0.69074286  0.06039563  0.61051415     0.19100
C573        C  0.61443411  0.22351165  0.71747774    -0.06700
C574        C  0.62396571  0.25801965  0.69455236    -0.17800
C575        C  0.60846452  0.26867363  0.64778482     0.10500
C576        C  0.58464738  0.24319517  0.62138692    -0.06600
C577        C  0.57336773  0.20976569  0.64599752    -0.17900
C578        C  0.58705761  0.20028827  0.69413917     0.10500
S579        S  0.62015919  0.31504366  0.62422081    -0.32800
S580        S  0.57135682  0.15639150  0.72132542    -0.32800
H581        H  0.56090895  0.17296927  0.76785015     0.28500
H582        H  0.58677967  0.31970462  0.59628079     0.28500
H583        H  0.64431825  0.27649090  0.71278507     0.19100
H584        H  0.55493521  0.18990257  0.62676103     0.19100
C585        C  0.62077504  0.72789932  0.95171080    -0.06700
C586        C  0.62533419  0.69284074  0.92769385    -0.17800
C587        C  0.65949960  0.68334220  0.90427689     0.10500
C588        C  0.68937289  0.70980615  0.90442230    -0.06600
C589        C  0.68376627  0.74555190  0.92593639    -0.17900
C590        C  0.64994050  0.75493774  0.94921963     0.10500
S591        S  0.66382676  0.63638908  0.87873787    -0.32800
S592        S  0.64655152  0.80116113  0.97761137    -0.32800
H593        H  0.60744076  0.80464185  0.97195063     0.28500
H594        H  0.70263302  0.63268549  0.88683453     0.28500
H595        H  0.60300710  0.67194634  0.92997669     0.19100
H596        H  0.70648131  0.76615063  0.92581025     0.19100
C597        C  0.72600015  0.00463771  0.97893097    -0.06700
C598        C  0.73070072  0.03855965  0.00592065    -0.17800
C599        C  0.71682177  0.07283450  0.98749528     0.10500
C600        C  0.69929274  0.07438736  0.93894402    -0.06600
C601        C  0.69456743  0.04034948  0.91197484    -0.17900
C602        C  0.70649333  0.00571970  0.93184861     0.10500
S603        S  0.72293471  0.11324091  0.02828092    -0.32800
S604        S  0.69376698  0.96401831  0.89624185    -0.32800
H605        H  0.68730488  0.94132129  0.93927326     0.28500
H606        H  0.68407914  0.12033247  0.03075321     0.28500
H607        H  0.74526675  0.03843013  0.04214820     0.19100
H608        H  0.68058159  0.04043613  0.87533015     0.19100
C609        C  0.78728213  0.87758973  0.95806749    -0.06700
C610        C  0.76725461  0.86818782  0.91380958    -0.17800
C611        C  0.77484068  0.83515298  0.88657530     0.10500
C612        C  0.80192268  0.80937594  0.90530367    -0.06600
C613        C  0.82444201  0.82077969  0.94668809    -0.17900
C614        C  0.81788567  0.85476943  0.97256286     0.10500
S615        S  0.74801034  0.82763717  0.82924434    -0.32800
S616        S  0.84888754  0.86882274  0.02375407    -0.32800
H617        H  0.87239044  0.83712333  0.02231801     0.28500
H618        H  0.77936220  0.81585944  0.80078270     0.28500
H619        H  0.74437685  0.88597124  0.90133120     0.19100
H620        H  0.84642404  0.80234313  0.96013139     0.19100
C621        C  0.87354316  0.76556198  0.44392027    -0.06700
C622        C  0.86661504  0.80054207  0.42099777    -0.17800
C623        C  0.83333381  0.80674018  0.39375165     0.10500
C624        C  0.80657175  0.77734089  0.38975961    -0.06600
C625        C  0.81487305  0.74176283  0.40985624    -0.17900
C626        C  0.84794496  0.73550902  0.43674588     0.10500
S627        S  0.82456440  0.85368737  0.37087494    -0.32800
S628        S  0.85402274  0.68958743  0.46502185    -0.32800
H629        H  0.89351060  0.69057561  0.46616443     0.28500
H630        H  0.80647330  0.84216132  0.32591934     0.28500
H631        H  0.88610112  0.82373756  0.42702732     0.19100
H632        H  0.79417005  0.71926407  0.40754718     0.19100
C633        C  0.69296684  0.67739608  0.40411998    -0.06700
C634        C  0.66879395  0.66452041  0.44292802    -0.17800
C635        C  0.67456949  0.62995082  0.46744510     0.10500
C636        C  0.70588962  0.60762898  0.45428796    -0.06600
C637        C  0.72804806  0.61858239  0.41269281    -0.17900
C638        C  0.72196495  0.65285440  0.38715074     0.10500
S639        S  0.64151059  0.61627376  0.51624959    -0.32800
S640        S  0.75330391  0.66510372  0.33533648    -0.32800
H641        H  0.77647105  0.63320021  0.33770212     0.28500
H642        H  0.64785829  0.57730042  0.51206353     0.28500
H643        H  0.64571867  0.68203259  0.45549613     0.19100
H644        H  0.75181281  0.60126716  0.40234785     0.19100
C645        C  0.71812153  0.87969394  0.21961388    -0.06700
C646        C  0.75561745  0.87927284  0.20356938    -0.17800
C647        C  0.76690692  0.89849976  0.15958534     0.10500
C648        C  0.73966127  0.91615484  0.12845841    -0.06600
C649        C  0.70259882  0.91876599  0.14656559    -0.17900
C650        C  0.69174277  0.90132076  0.19232328     0.10500
S651        S  0.81652637  0.89989079  0.14571596    -0.32800
S652        S  0.64345624  0.90410955  0.21319665    -0.32800
H653        H  0.63189286  0.93106793  0.17733792     0.28500
H654        H  0.81546713  0.93335308  0.11709439     0.28500
H655        H  0.77623569  0.86384020  0.22548551     0.19100
H656        H  0.68161537  0.93250194  0.12336017     0.19100
C657        C  0.60813701  0.76718893  0.22075606    -0.06700
C658        C  0.61461446  0.73147114  0.19926032    -0.17800
C659        C  0.59724896  0.72042965  0.15383708     0.10500
C660        C  0.57427598  0.74630680  0.12755667    -0.06600
C661        C  0.56415721  0.77989686  0.15217076    -0.17900
C662        C  0.57983875  0.79010618  0.19913983     0.10500
S663        S  0.60610910  0.67329219  0.13109001    -0.32800
S664        S  0.56360618  0.83274433  0.22970389    -0.32800
H665        H  0.53378517  0.84029248  0.19614424     0.28500
H666        H  0.57303308  0.67032696  0.10196059     0.28500
H667        H  0.63441088  0.71240475  0.21679467     0.19100
H668        H  0.54576520  0.79949758  0.13315588     0.19100
C669        C  0.70831502  0.90992299  0.44704342    -0.06700
C670        C  0.74747506  0.91563876  0.44709258    -0.17800
C671        C  0.76368089  0.94896780  0.46570582     0.10500
C672        C  0.74031174  0.97782574  0.48443858    -0.06600
C673        C  0.70116198  0.97208633  0.48485128    -0.17900
C674        C  0.68496537  0.93849757  0.46681223     0.10500
S675        S  0.81429156  0.95252659  0.46526332    -0.32800
S676        S  0.63464598  0.93336427  0.47196971    -0.32800
H677        H  0.63532344  0.89487902  0.48477350     0.28500
H678        H  0.81732452  0.97491362  0.50928553     0.28500
H679        H  0.76572283  0.89390120  0.43227892     0.19100
H680        H  0.68303475  0.99396422  0.49968892     0.19100
C681        C  0.20033651  0.81926276  0.39947915    -0.06700
C682        C  0.17627842  0.83128867  0.43843771    -0.17800
C683        C  0.18277966  0.86522661  0.46422797     0.10500
C684        C  0.21482771  0.88724744  0.45203467    -0.06600
C685        C  0.23706798  0.87676507  0.41022773    -0.17900
C686        C  0.23003460  0.84314368  0.38368692     0.10500
S687        S  0.15031394  0.87786201  0.51409900    -0.32800
S688        S  0.26284133  0.82987305  0.33471674    -0.32800
H689        H  0.23566645  0.81359089  0.30257516     0.28500
H690        H  0.15742318  0.91687073  0.51182845     0.28500
H691        H  0.15336041  0.81314053  0.45063370     0.19100
H692        H  0.26171083  0.89341737  0.40053657     0.19100
C693        C  0.50606070  0.76685692  0.48327537    -0.06700
C694        C  0.50516202  0.79716099  0.44902533    -0.17800
C695        C  0.53836422  0.81298856  0.42988210     0.10500
C696        C  0.57332631  0.79762202  0.44431497    -0.06600
C697        C  0.57414447  0.76818487  0.47996811    -0.17900
C698        C  0.54097835  0.75245313  0.49919224     0.10500
S699        S  0.53423999  0.85348673  0.38887252    -0.32800
S700        S  0.54514781  0.71297647  0.54198142    -0.32800
H701        H  0.51190200  0.69460767  0.52650794     0.28500
H702        H  0.56749896  0.87113423  0.40592277     0.28500
H703        H  0.47840648  0.80899746  0.43790983     0.19100
H704        H  0.60074923  0.75601035  0.49101117     0.19100
C705        C  0.37635851  0.71813790  0.45364161    -0.06700
C706        C  0.35951401  0.68236568  0.45640256    -0.17800
C707        C  0.32574020  0.67464748  0.43107824     0.10500
C708        C  0.30787931  0.70372209  0.40355751    -0.06600
C709        C  0.32671424  0.73828184  0.39693019    -0.17900
C710        C  0.36033409  0.74602901  0.42229939     0.10500
S711        S  0.30685842  0.62746273  0.43585846    -0.32800
S712        S  0.37922897  0.79321513  0.41702069    -0.32800
H713        H  0.38882982  0.79709545  0.46869715     0.28500
H714        H  0.28730668  0.62838994  0.38938968     0.28500
H715        H  0.37217433  0.66071137  0.47976091     0.19100
H716        H  0.31351209  0.76076869  0.37569122     0.19100
C717        C  0.12559298  0.76855035  0.95293554    -0.06700
C718        C  0.14069863  0.80443479  0.96306176    -0.17800
C719        C  0.17314050  0.81717693  0.93821708     0.10500
C720        C  0.19108770  0.79355704  0.90269615    -0.06600
C721        C  0.17489346  0.75860771  0.89036197    -0.17900
C722        C  0.14241310  0.74568776  0.91533874     0.10500
S723        S  0.19140653  0.86300809  0.95514486    -0.32800
S724        S  0.12527185  0.69845369  0.90309323    -0.32800
H725        H  0.15166810  0.68909604  0.86533943     0.28500
H726        H  0.21053363  0.86939714  0.90905184     0.28500
H727        H  0.12778215  0.82212954  0.99170896     0.19100
H728        H  0.18944136  0.74024899  0.86404667     0.19100
C729        C  0.30888450  0.69437002  0.91172983    -0.06700
C730        C  0.32942441  0.68458432  0.95551005    -0.17800
C731        C  0.32303199  0.65037258  0.98073021     0.10500
C732        C  0.29402364  0.62591004  0.96362386    -0.06600
C733        C  0.27654629  0.63373694  0.91699908    -0.17900
C734        C  0.28456004  0.66678789  0.89008923     0.10500
S735        S  0.35251184  0.63992649  0.03475848    -0.32800
S736        S  0.26162588  0.67197342  0.82934839    -0.32800
H737        H  0.29396149  0.68640006  0.80512004     0.28500
H738        H  0.34836117  0.60054610  0.03130422     0.28500
H739        H  0.34974501  0.70421072  0.97142067     0.19100
H740        H  0.25510185  0.61484624  0.90230151     0.19100
C741        C  0.26281203  0.92088633  0.62384684    -0.06700
C742        C  0.23364107  0.90715167  0.65494907    -0.17800
C743        C  0.24105201  0.89200166  0.70307716     0.10500
C744        C  0.27839866  0.89060483  0.72081331    -0.06600
C745        C  0.30737965  0.90589507  0.69086748    -0.17900
C746        C  0.30016417  0.92027161  0.64226794     0.10500
S747        S  0.20190202  0.87430501  0.73975776    -0.32800
S748        S  0.34017603  0.93401921  0.60416358    -0.32800
H749        H  0.32575488  0.92028611  0.55782004     0.28500
H750        H  0.21868479  0.87963964  0.78773748     0.28500
H751        H  0.20494178  0.90757147  0.64115901     0.19100
H752        H  0.33624594  0.90396823  0.70381788     0.19100
C753        C  0.38122657  0.78013973  0.71823525    -0.06700
C754        C  0.39405669  0.80740014  0.68332797    -0.17800
C755        C  0.41012539  0.79712218  0.63686926     0.10500
C756        C  0.41394768  0.75863122  0.62488425    -0.06600
C757        C  0.40267063  0.73123496  0.66024692    -0.17900
C758        C  0.38701695  0.74152264  0.70713901     0.10500
S759        S  0.42219844  0.83339208  0.59119651    -0.32800
S760        S  0.37543953  0.70406641  0.75083664    -0.32800
H761        H  0.38702052  0.72409528  0.79445164     0.28500
H762        H  0.41696753  0.86446648  0.62368080     0.28500
H763        H  0.38954747  0.83697400  0.69105688     0.19100
H764        H  0.40582802  0.70167285  0.65102291     0.19100
C765        C  0.42502376  0.80923769  0.94237931    -0.06700
C766        C  0.42180882  0.78046831  0.97879696    -0.17800
C767        C  0.45339875  0.76145479  0.99677321     0.10500
C768        C  0.48958282  0.77238364  0.97975124    -0.06600
C769        C  0.49285444  0.80197596  0.94440847    -0.17900
C770        C  0.46113666  0.82042323  0.92557736     0.10500
S771        S  0.44511239  0.72189627  0.03848414    -0.32800
S772        S  0.46878973  0.85857674  0.88139180    -0.32800
H773        H  0.43828115  0.88024618  0.89841832     0.28500
H774        H  0.47564936  0.70053460  0.02092738     0.28500
H775        H  0.39421812  0.77111596  0.99117184     0.19100
H776        H  0.52044341  0.81128120  0.93198700     0.19100
C777        C  0.51451860  0.23465651  0.98138158    -0.06700
C778        C  0.52082357  0.19570345  0.97879499    -0.17800
C779        C  0.55501538  0.18132773  0.96107190     0.10500
C780        C  0.58357475  0.20642008  0.94446371    -0.06600
C781        C  0.57730479  0.24544683  0.94794127    -0.17900
C782        C  0.54338264  0.25978721  0.96646678     0.10500
S783        S  0.56080658  0.13091072  0.96252127    -0.32800
S784        S  0.53878504  0.31034334  0.96993665    -0.32800
H785        H  0.51347753  0.31105685  0.01099626     0.28500
H786        H  0.59863467  0.13231459  0.97816222     0.28500
H787        H  0.49894153  0.17631505  0.99109013     0.19100
H788        H  0.59891111  0.26509654  0.93549372     0.19100
C789        C  0.38450668  0.28526819  0.95072209    -0.06700
C790        C  0.36845966  0.32069191  0.95955073    -0.17800
C791        C  0.33441386  0.33086176  0.93686536     0.10500
C792        C  0.31505865  0.30476949  0.90553342    -0.06600
C793        C  0.33264518  0.27031526  0.89391219    -0.17900
C794        C  0.36698443  0.26024793  0.91627014     0.10500
S795        S  0.31738917  0.37752222  0.94907698    -0.32800
S796        S  0.38617552  0.21398920  0.90460225    -0.32800
H797        H  0.35824179  0.20146580  0.87052325     0.28500
H798        H  0.30522516  0.38239139  0.89857381     0.28500
H799        H  0.38204499  0.34013695  0.98569149     0.19100
H800        H  0.31829084  0.25008661  0.86979372     0.19100
C801        C  0.29319435  0.92861456  0.94308327    -0.06700
C802        C  0.26745400  0.92869507  0.98382455    -0.17800
C803        C  0.25142153  0.96204751  0.00162742     0.10500
C804        C  0.26252350  0.99675728  0.98008934    -0.06600
C805        C  0.28788836  0.99692669  0.93918813    -0.17900
C806        C  0.30289832  0.96339022  0.91982975     0.10500
S807        S  0.21592325  0.95818602  0.05045420    -0.32800
S808        S  0.33320980  0.96597116  0.86460385    -0.32800
H809        H  0.32934351  0.00476704  0.85517124     0.28500
H810        H  0.19552880  0.99009174  0.03532806     0.28500
H811        H  0.25916102  0.90241179  0.00164013     0.19100
H812        H  0.29628587  0.02364361  0.92278256     0.19100
C813        C  0.21408316  0.12750559  0.95300931    -0.06700
C814        C  0.23333488  0.13466495  0.90720361    -0.17800
C815        C  0.22748530  0.16806559  0.87996302     0.10500
C816        C  0.20285294  0.19540305  0.89972821    -0.06600
C817        C  0.18166079  0.18695309  0.94328448    -0.17900
C818        C  0.18596062  0.15289493  0.96896902     0.10500
S819        S  0.25583354  0.17646247  0.82432407    -0.32800
S820        S  0.15562193  0.14428657  0.02289088    -0.32800
H821        H  0.15750242  0.10474522  0.02023031     0.28500
H822        H  0.22557693  0.18919811  0.79468689     0.28500
H823        H  0.25478609  0.11539201  0.89428527     0.19100
H824        H  0.16270850  0.20776205  0.95875287     0.19100
C825        C  0.11988893  0.23200881  0.44468596    -0.06700
C826        C  0.13026487  0.25488729  0.40333422    -0.17800
C827        C  0.16278170  0.24742539  0.37502805     0.10500
C828        C  0.18604621  0.21715376  0.38924033    -0.06600
C829        C  0.17375886  0.19232939  0.42735287    -0.17900
C830        C  0.14057190  0.19890517  0.45435123     0.10500
S831        S  0.17511478  0.27972970  0.32494347    -0.32800
S832        S  0.12692415  0.16486848  0.50197694    -0.32800
H833        H  0.08826012  0.17283417  0.50012290     0.28500
H834        H  0.19057527  0.25220318  0.29284648     0.28500
H835        H  0.11425053  0.28003196  0.39497057     0.19100
H836        H  0.19119682  0.16863671  0.43792854     0.19100
C837        C  0.30770367  0.32336677  0.39889207    -0.06700
C838        C  0.33291324  0.33466317  0.43736227    -0.17800
C839        C  0.32899855  0.36925922  0.46262978     0.10500
C840        C  0.29858884  0.39283914  0.45028358    -0.06600
C841        C  0.27674257  0.38415495  0.40730903    -0.17900
C842        C  0.28153407  0.35018800  0.38060738     0.10500
S843        S  0.36229591  0.38270973  0.51147925    -0.32800
S844        S  0.25284265  0.34159019  0.32497355    -0.32800
H845        H  0.23457433  0.37661326  0.32396588     0.28500
H846        H  0.38568845  0.35107774  0.50699894     0.28500
H847        H  0.35477780  0.31568711  0.44913052     0.19100
H848        H  0.25413021  0.40278264  0.39677271     0.19100
C849        C  0.25938753  0.08949522  0.12436864    -0.06700
C850        C  0.23131609  0.10837322  0.15188912    -0.17800
C851        C  0.23860353  0.12384704  0.19981907     0.10500
C852        C  0.27455337  0.11993146  0.22159093    -0.06600
C853        C  0.30182651  0.09867610  0.19606958    -0.17900
C854        C  0.29501964  0.08422993  0.14724088     0.10500
S855        S  0.20143933  0.14963274  0.23057653    -0.32800
S856        S  0.33427764  0.06339514  0.11440018    -0.32800
H857        H  0.32606866  0.07949958  0.06681785     0.28500
H858        H  0.21370058  0.14251750  0.28053624     0.28500
H859        H  0.20376738  0.11223103  0.13507790     0.19100
H860        H  0.32978600  0.09642426  0.21212006     0.19100
C861        C  0.38532664  0.22658025  0.21519318    -0.06700
C862        C  0.38572893  0.26432612  0.19885267    -0.17800
C863        C  0.40433476  0.27523309  0.15425864     0.10500
C864        C  0.42243329  0.24780781  0.12414223    -0.06600
C865        C  0.42471991  0.21081415  0.14216297    -0.17900
C866        C  0.40674703  0.19972944  0.18726554     0.10500
S867        S  0.40342409  0.32449158  0.13733670    -0.32800
S868        S  0.41047650  0.15072816  0.20598445    -0.32800
H869        H  0.43280218  0.13822658  0.16521692     0.28500
H870        H  0.43688748  0.32412095  0.10880009     0.28500
H871        H  0.37068373  0.28552546  0.22027259     0.19100
H872        H  0.43886570  0.18999123  0.11904520     0.19100
C873        C  0.41987675  0.20220483  0.44591469    -0.06700
C874        C  0.45239183  0.18382855  0.42902612    -0.17800
C875        C  0.48780580  0.19360097  0.44795481     0.10500
C876        C  0.49131622  0.22406756  0.48230021    -0.06600
C877        C  0.45882034  0.24153252  0.50077767    -0.17900
C878        C  0.42316628  0.23034263  0.48394248     0.10500
S879        S  0.52717725  0.16542099  0.42791269    -0.32800
S880        S  0.38342162  0.25459551  0.51033485    -0.32800
H881        H  0.36727604  0.22142487  0.53019814     0.28500
H882        H  0.54740334  0.16900482  0.47370871     0.28500
H883        H  0.45015756  0.16137725  0.40118809     0.19100
H884        H  0.46128217  0.26436636  0.52799191     0.19100
C885        C  0.28937752  0.08918463  0.44873167    -0.06700
C886        C  0.30624547  0.05634040  0.42932990    -0.17800
C887        C  0.29632105  0.02049095  0.44698398     0.10500
C888        C  0.26793868  0.01666308  0.48413213    -0.06600
C889        C  0.25114042  0.04914498  0.50406597    -0.17900
C890        C  0.26174590  0.08523003  0.48738756     0.10500
S891        S  0.32153577  0.98083113  0.42120515    -0.32800
S892        S  0.23959525  0.12463232  0.51824207    -0.32800
H893        H  0.27359993  0.14429721  0.52615480     0.28500
H894        H  0.32083362  0.95917827  0.46599861     0.28500
H895        H  0.32756665  0.05841434  0.39999417     0.19100
H896        H  0.22971260  0.04634053  0.53320455     0.19100
loop_ 
_geom_bond_atom_site_label_1 
_geom_bond_atom_site_label_2 
_geom_bond_distance 
_geom_bond_site_symmetry_2 
_ccdc_geom_bond_type 
O1          Cr19   2.003       .  S
O1            C9   1.262       .  A
O2          Cr19   1.982       .  S
O2            C3   1.263       .  A
C3            O4   1.266       .  A
C3          C837   1.496       .  S
O4          Cr20   2.012       .  S
O5          Cr20   1.993       .  S
O5            C6   1.265       .  A
C6            O7   1.259       .  A
C6          C861   1.493       .  S
O7          Cr21   1.988       .  S
O8          Cr21   1.971       .  S
O8            C9   1.259       .  A
C9          C873   1.477       .  S
O10         Cr19   1.986       .  S
O10          C18   1.260       .  A
O11         Cr19   1.991       .  S
O11          C12   1.261       .  A
C12          O13   1.261       .  A
C12         C828   1.473       .  S
O13         Cr20   1.991       .  S
O14         Cr20   2.001       .  S
O14          C15   1.267       .  A
C15          O16   1.262       .  A
C15         C852   1.470       .  S
O16         Cr21   1.978       .  S
O17         Cr21   2.004       .  S
O17          C18   1.265       .  A
C18         C885   1.492       .  S
Cr19         O22   1.769       .  S
Cr20         O22   1.771       .  S
Cr21         O22   1.772       .  S
C23         C804   1.480   1_544  S
C23          C24   1.406       .  A
C23          C28   1.406   1_554  A
C24          C25   1.402       .  A
C24          H29   1.082       .  S
C25         C849   1.484       .  S
C25          C26   1.401       .  A
C26          C27   1.402   1_554  A
C26          H30   1.083       .  S
C27         C813   1.484       .  S
C27          C28   1.402       .  A
C28          H31   1.083       .  S
C32         C777   1.479   1_554  S
C32          C33   1.405       .  A
C32          C37   1.408   1_554  A
C33          C34   1.404       .  A
C33          H38   1.084       .  S
C34         C864   1.482       .  S
C34          C35   1.399       .  A
C35          C36   1.399   1_554  A
C35          H39   1.085       .  S
C36         C789   1.481       .  S
C36          C37   1.406       .  A
C37          H40   1.084       .  S
O41         Cr59   1.967       .  S
O41          C49   1.260       .  A
O42         Cr59   1.994       .  S
O42          C43   1.262       .  A
C43          O44   1.260       .  A
C43         C720   1.466       .  S
O44         Cr60   1.984       .  S
O45         Cr60   2.007       .  S
O45          C46   1.266       .  A
C46          O47   1.260       .  A
C46         C744   1.471       .  S
O47         Cr61   1.975       .  S
O48         Cr61   2.013       .  S
O48          C49   1.267       .  A
C49         C801   1.488       .  S
O50         Cr59   2.001       .  S
O50          C58   1.262       .  A
O51         Cr59   1.982       .  S
O51          C52   1.263       .  A
C52          O53   1.266       .  A
C52         C729   1.492       .  S
O53         Cr60   2.008       .  S
O54         Cr60   1.978       .  S
O54          C55   1.260       .  A
C55          O56   1.265       .  A
C55         C753   1.483       .  S
O56         Cr61   1.994       .  S
O57         Cr61   1.973       .  S
O57          C58   1.256       .  A
C58         C765   1.476       .  S
Cr59         O62   1.770       .  S
Cr60         O62   1.769       .  S
Cr61         O62   1.773       .  S
C63         C693   1.473       .  S
C63          C64   1.403       .  A
C63          C68   1.402       .  A
C64          C65   1.400       .  A
C64          H69   1.084       .  S
C65         C705   1.471       .  S
C65          C66   1.400       .  A
C66          C67   1.398       .  A
C66          H70   1.085       .  S
C67         C756   1.474       .  S
C67          C68   1.401       .  A
C68          H71   1.084       .  S
C72         C888   1.480   1_565  S
C72          C73   1.405       .  A
C72          C77   1.407       .  A
C73          C74   1.403       .  A
C73          H78   1.085       .  S
C74         C741   1.481       .  S
C74          C75   1.401       .  A
C75          C76   1.403       .  A
C75          H79   1.085       .  S
C76         C684   1.484       .  S
C76          C77   1.404       .  A
C77          H80   1.084       .  S
O81         Cr99   2.002       .  S
O81          C89   1.263       .  A
O82         Cr99   1.989       .  S
O82          C83   1.265       .  A
C83          O84   1.266       .  A
C83         C633   1.501       .  S
O84        Cr100   2.016       .  S
O85        Cr100   1.978       .  S
O85          C86   1.261       .  A
C86          O87   1.265       .  A
C86         C657   1.488       .  S
O87        Cr101   2.003       .  S
O88        Cr101   1.968       .  S
O88          C89   1.256       .  A
C89         C696   1.474       .  S
O90         Cr99   1.970       .  S
O90          C98   1.259       .  A
O91         Cr99   1.986       .  S
O91          C92   1.262       .  A
C92          O93   1.261       .  A
C92         C624   1.466       .  S
O93        Cr100   1.987       .  S
O94        Cr100   2.017       .  S
O94          C95   1.268       .  A
C95          O96   1.258       .  A
C95         C645   1.476       .  S
O96        Cr101   1.973       .  S
O97        Cr101   2.016       .  S
O97          C98   1.268       .  A
C98         C669   1.482       .  S
Cr99        O102   1.768       .  S
Cr100       O102   1.768       .  S
Cr101       O102   1.774       .  S
C103        C597   1.500   1_564  S
C103        C104   1.412   1_554  A
C103        C108   1.413       .  A
C104        C105   1.408       .  A
C104        H109   1.082       .  S
C105        C609   1.492       .  S
C105        C106   1.402   1_556  A
C106        C107   1.402       .  A
C106        H110   1.084       .  S
C107        C648   1.492       .  S
C107        C108   1.407       .  A
C108        H111   1.082       .  S
C112        C768   1.484       .  S
C112        C113   1.406   1_556  A
C112        C117   1.407       .  A
C113        C114   1.405       .  A
C113        H118   1.083       .  S
C114        C660   1.488       .  S
C114        C115   1.403       .  A
C115        C116   1.399   1_554  A
C115        H119   1.084       .  S
C116        C585   1.474       .  S
C116        C117   1.399       .  A
C117        H120   1.083       .  S
O121       Cr139   2.010       .  S
O121        C129   1.264       .  A
O122       Cr139   1.973       .  S
O122        C123   1.259       .  A
C123        O124   1.268       .  A
C123        C537   1.487       .  S
O124       Cr140   2.011       .  S
O125       Cr140   1.987       .  S
O125        C126   1.265       .  A
C126        O127   1.262       .  A
C126        C561   1.493       .  S
O127       Cr141   1.997       .  S
O128       Cr141   1.987       .  S
O128        C129   1.262       .  A
C129        C600   1.501       .  S
O130       Cr139   1.972       .  S
O130        C138   1.258       .  A
O131       Cr139   2.002       .  S
O131        C132   1.264       .  A
C132        O133   1.260       .  A
C132        C549   1.471       .  S
O133       Cr140   1.987       .  S
O134       Cr140   1.998       .  S
O134        C135   1.265       .  A
C135        O136   1.262       .  A
C135        C573   1.477       .  S
O136       Cr141   1.984       .  S
O137       Cr141   2.014       .  S
O137        C138   1.267       .  A
C138        C780   1.484       .  S
Cr139       O142   1.768       .  S
Cr140       O142   1.771       .  S
Cr141       O142   1.772       .  S
C143        C876   1.476       .  S
C143        C144   1.403       .  A
C143        C148   1.401       .  A
C144        C145   1.398       .  A
C144        H149   1.083       .  S
C145        C528   1.478       .  S
C145        C146   1.404       .  A
C146        C147   1.408       .  A
C146        H150   1.082       .  S
C147        C576   1.489       .  S
C147        C148   1.404       .  A
C148        H151   1.084       .  S
C152        C672   1.483   1_545  S
C152        C153   1.409       .  A
C152        C157   1.404       .  A
C153        C154   1.410       .  A
C153        H158   1.084       .  S
C154        C513   1.491       .  S
C154        C155   1.403       .  A
C155        C156   1.398       .  A
C155        H159   1.083       .  S
C156        C564   1.481       .  S
C156        C157   1.402       .  A
C157        H160   1.084       .  S
O161       Cr179   1.994       .  S
O161        C169   1.263       .  A
O162       Cr179   1.997       .  S
O162        C163   1.264       .  A
C163        O164   1.264       .  A
C163        C525   1.470       .  S
O164       Cr180   1.991       .  S
O165       Cr180   1.996       .  S
O165        C166   1.264       .  A
C166        O167   1.261       .  A
C166        C480   1.475       .  S
O167       Cr181   1.984       .  S
O168       Cr181   2.010       .  S
O168        C169   1.265       .  A
C169        C489   1.494       .  S
O170       Cr179   2.005       .  S
O170        C178   1.265       .  A
O171       Cr179   1.990       .  S
O171        C172   1.263       .  A
C172        O173   1.262       .  A
C172        C516   1.495       .  S
O173       Cr180   2.004       .  S
O174       Cr180   2.000       .  S
O174        C175   1.267       .  A
C175        O176   1.263       .  A
C175        C465   1.494       .  S
O176       Cr181   1.997       .  S
O177       Cr181   1.972       .  S
O177        C178   1.259       .  A
C178        C501   1.478       .  S
Cr179       O182   1.770       .  S
Cr180       O182   1.774       .  S
Cr181       O182   1.771       .  S
C183        C453   1.481   1_655  S
C183        C184   1.406   1_556  A
C183        C188   1.405       .  A
C184        C185   1.407       .  A
C184        H189   1.084       .  S
C185        C468   1.489       .  S
C185        C186   1.403       .  A
C186        C187   1.401   1_554  A
C186        H190   1.084       .  S
C187        C540   1.484       .  S
C187        C188   1.404       .  A
C188        H191   1.084       .  S
C192        C441   1.476       .  S
C192        C193   1.407       .  A
C192        C197   1.405   1_556  A
C193        C194   1.402       .  A
C193        H198   1.084       .  S
C194        C552   1.479       .  S
C194        C195   1.399   1_556  A
C195        C196   1.401       .  A
C195        H199   1.085       .  S
C196        C477   1.478       .  S
C196        C197   1.402       .  A
C197        H200   1.084       .  S
O201       Cr219   1.977       .  S
O201        C209   1.258       .  A
O202       Cr219   1.991       .  S
O202        C203   1.262       .  A
C203        O204   1.261       .  A
C203        C816   1.471       .  S
O204       Cr220   1.987       .  S
O205       Cr220   1.999       .  S
O205        C206   1.265       .  A
C206        O207   1.261       .  A
C206        C408   1.471       .  S
O207       Cr221   1.979       .  S
O208       Cr221   2.012       .  S
O208        C209   1.265       .  A
C209        C456   1.480       .  S
O210       Cr219   2.016       .  S
O210        C218   1.265       .  A
O211       Cr219   1.990       .  S
O211        C212   1.265       .  A
C212        O213   1.266       .  A
C212        C792   1.491       .  S
O213       Cr220   2.004       .  S
O214       Cr220   1.988       .  S
O214        C215   1.263       .  A
C215        O216   1.263       .  A
C215        C420   1.475       .  S
O216       Cr221   1.987       .  S
O217       Cr221   1.976       .  S
O217        C218   1.256       .  A
C218        C429   1.473       .  S
Cr219       O222   1.773       .  S
Cr220       O222   1.771       .  S
Cr221       O222   1.777       .  S
C223        C396   1.490       .  S
C223        C224   1.405       .  A
C223        C228   1.412       .  A
C224        C225   1.399       .  A
C224        H229   1.084       .  S
C225        C417   1.472       .  S
C225        C226   1.395       .  A
C226        C227   1.403       .  A
C226        H230   1.084       .  S
C227        C840   1.489       .  S
C227        C228   1.408       .  A
C228        H231   1.084       .  S
C232        C504   1.477   1_455  S
C232        C233   1.404       .  A
C232        C237   1.404       .  A
C233        C234   1.404       .  A
C233        H238   1.083       .  S
C234        C405   1.485       .  S
C234        C235   1.403       .  A
C235        C236   1.404       .  A
C235        H239   1.084       .  S
C236        C825   1.484       .  S
C236        C237   1.402       .  A
C237        H240   1.083       .  S
O241       Cr259   2.010       .  S
O241        C249   1.262       .  A
O242       Cr259   1.970       .  S
O242        C243   1.259       .  A
C243        O244   1.267       .  A
C243        C708   1.476       .  S
O244       Cr260   2.006       .  S
O245       Cr260   1.983       .  S
O245        C246   1.262       .  A
C246        O247   1.263       .  A
C246        C372   1.481       .  S
O247       Cr261   1.992       .  S
O248       Cr261   1.975       .  S
O248        C249   1.258       .  A
C249        C393   1.493       .  S
O250       Cr259   1.965       .  S
O250        C258   1.258       .  A
O251       Cr259   1.999       .  S
O251        C252   1.263       .  A
C252        O253   1.261       .  A
C252        C681   1.473       .  S
O253       Cr260   1.988       .  S
O254       Cr260   1.996       .  S
O254        C255   1.265       .  A
C255        O256   1.262       .  A
C255        C360   1.469       .  S
O256       Cr261   1.980       .  S
O257       Cr261   2.011       .  S
O257        C258   1.267       .  A
C258        C384   1.475       .  S
Cr259       O262   1.769       .  S
Cr260       O262   1.769       .  S
Cr261       O262   1.772       .  S
C263        C345   1.482   1_455  S
C263        C264   1.404       .  A
C263        C268   1.407   1_556  A
C264        C265   1.401       .  A
C264        H269   1.084       .  S
C265        C717   1.480       .  S
C265        C266   1.402   1_556  A
C266        C267   1.403       .  A
C266        H270   1.084       .  S
C267        C357   1.484       .  S
C267        C268   1.405       .  A
C268        H271   1.083       .  S
C272        C432   1.491   1_554  S
C272        C273   1.406       .  A
C272        C277   1.410   1_554  A
C273        C274   1.401       .  A
C273        H278   1.084       .  S
C274        C369   1.476       .  S
C274        C275   1.398       .  A
C275        C276   1.402   1_554  A
C275        H279   1.084       .  S
C276        C732   1.490       .  S
C276        C277   1.408       .  A
C277        H280   1.083       .  S
O281       Cr299   2.004       .  S
O281        C289   1.261       .  A
O282       Cr299   1.983       .  S
O282        C283   1.263       .  A
C283        O284   1.266       .  A
C283        C612   1.496       .  S
O284       Cr300   2.014       .  S
O285       Cr300   1.980       .  S
O285        C286   1.261       .  A
C286        O287   1.264       .  A
C286        C321   1.485       .  S
O287       Cr301   1.999       .  S
O288       Cr301   1.974       .  S
O288        C289   1.255       .  A
C289        C348   1.468       .  S
O290       Cr299   1.967       .  S
O290        C298   1.260       .  A
O291       Cr299   1.993       .  S
O291        C292   1.264       .  A
C292        O293   1.263       .  A
C292        C588   1.471       .  S
O293       Cr300   1.991       .  S
O294       Cr300   2.019       .  S
O294        C295   1.268       .  A
C295        O296   1.260       .  A
C295        C333   1.481       .  S
O296       Cr301   1.978       .  S
O297       Cr301   2.018       .  S
O297        C298   1.269       .  A
C298        C444   1.481       .  S
Cr299       O302   1.769       .  S
Cr300       O302   1.770       .  S
Cr301       O302   1.774       .  S
C303        C492   1.492       .  S
C303        C304   1.410       .  A
C303        C308   1.411       .  A
C304        C305   1.408       .  A
C304        H309   1.084       .  S
C305        C336   1.491       .  S
C305        C306   1.401       .  A
C306        C307   1.402       .  A
C306        H310   1.085       .  S
C307        C636   1.492       .  S
C307        C308   1.410       .  A
C308        H311   1.084       .  S
C312        C381   1.469   1_655  S
C312        C313   1.401       .  A
C312        C317   1.401       .  A
C313        C314   1.398       .  A
C313        H318   1.084       .  S
C314        C621   1.470       .  S
C314        C315   1.400       .  A
C315        C316   1.403       .  A
C315        H319   1.084       .  S
C316        C324   1.484       .  S
C316        C317   1.404       .  A
C317        H320   1.083       .  S
C321        C322   1.407       .  A
C321        C326   1.417       .  A
C322        C323   1.399       .  A
C322        H331   1.084       .  S
C323        C324   1.415       .  A
C323        S327   1.805       .  S
C324        C325   1.403       .  A
C325        C326   1.394       .  A
C325        H332   1.084       .  S
C326        S328   1.803       .  S
S327        H330   1.407       .  S
S328        H329   1.407       .  S
C333        C334   1.405       .  A
C333        C338   1.410       .  A
C334        C335   1.404       .  A
C334        H343   1.084       .  S
C335        C336   1.416       .  A
C335        S339   1.804       .  S
C336        C337   1.408       .  A
C337        C338   1.403       .  A
C337        H344   1.085       .  S
C338        S340   1.802       .  S
S339        H342   1.407       .  S
S340        H341   1.406       .  S
C345        C346   1.404       .  A
C345        C350   1.415       .  A
C346        C347   1.399       .  A
C346        H355   1.083       .  S
C347        C348   1.412       .  A
C347        S351   1.805       .  S
C348        C349   1.400       .  A
C349        C350   1.400       .  A
C349        H356   1.084       .  S
C350        S352   1.801   1_656  S
S351        H354   1.403       .  S
S352        H353   1.407   1_554  S
C357        C358   1.406       .  A
C357        C362   1.415       .  A
C358        C359   1.400       .  A
C358        H367   1.084       .  S
C359        C360   1.410       .  A
C359        S363   1.804       .  S
C360        C361   1.402       .  A
C361        C362   1.399       .  A
C361        H368   1.085       .  S
C362        S364   1.801       .  S
S363        H366   1.407       .  S
S364        H365   1.407       .  S
C369        C370   1.403       .  A
C369        C374   1.409       .  A
C370        C371   1.400       .  A
C370        H379   1.083       .  S
C371        C372   1.414       .  A
C371        S375   1.802       .  S
C372        C373   1.408       .  A
C373        C374   1.399       .  A
C373        H380   1.082       .  S
C374        S376   1.808       .  S
S375        H378   1.407       .  S
S376        H377   1.407       .  S
C381        C382   1.402       .  A
C381        C386   1.408       .  A
C382        C383   1.398       .  A
C382        H391   1.085   1_455  S
C383        C384   1.413       .  A
C383        S387   1.803       .  S
C384        C385   1.406       .  A
C385        C386   1.397       .  A
C385        H392   1.084       .  S
C386        S388   1.805       .  S
S387        H390   1.407       .  S
S388        H389   1.405   1_455  S
C393        C394   1.408       .  A
C393        C398   1.420       .  A
C394        C395   1.398       .  A
C394        H403   1.084       .  S
C395        C396   1.414       .  A
C395        S399   1.804       .  S
C396        C397   1.405       .  A
C397        C398   1.402       .  A
C397        H404   1.085       .  S
C398        S400   1.802       .  S
S399        H402   1.407       .  S
S400        H401   1.402       .  S
C405        C406   1.406       .  A
C405        C410   1.415       .  A
C406        C407   1.400       .  A
C406        H415   1.084       .  S
C407        C408   1.411       .  A
C407        S411   1.804       .  S
C408        C409   1.402       .  A
C409        C410   1.399       .  A
C409        H416   1.085       .  S
C410        S412   1.804       .  S
S411        H414   1.406       .  S
S412        H413   1.407       .  S
C417        C418   1.404       .  A
C417        C422   1.407       .  A
C418        C419   1.403       .  A
C418        H427   1.083       .  S
C419        C420   1.413       .  A
C419        S423   1.803       .  S
C420        C421   1.406       .  A
C421        C422   1.396       .  A
C421        H428   1.083       .  S
C422        S424   1.809       .  S
S423        H426   1.407       .  S
S424        H425   1.406       .  S
C429        C430   1.400       .  A
C429        C434   1.410       .  A
C430        C431   1.399       .  A
C430        H439   1.080       .  S
C431        C432   1.415       .  A
C431        S435   1.804       .  S
C432        C433   1.410       .  A
C433        C434   1.403       .  A
C433        H440   1.084   1_556  S
C434        S436   1.805       .  S
S435        H438   1.407       .  S
S436        H437   1.405       .  S
C441        C442   1.404       .  A
C441        C446   1.409       .  A
C442        C443   1.403       .  A
C442        H451   1.084       .  S
C443        C444   1.415       .  A
C443        S447   1.803       .  S
C444        C445   1.406       .  A
C445        C446   1.397       .  A
C445        H452   1.083       .  S
C446        S448   1.804       .  S
S447        H450   1.407       .  S
S448        H449   1.406   1_556  S
C453        C454   1.400       .  A
C453        C458   1.415       .  A
C454        C455   1.398       .  A
C454        H463   1.084       .  S
C455        C456   1.417       .  A
C455        S459   1.803       .  S
C456        C457   1.403       .  A
C457        C458   1.403       .  A
C457        H464   1.084       .  S
C458        S460   1.804   1_456  S
S459        H462   1.404       .  S
S460        H461   1.406   1_554  S
C465        C466   1.406       .  A
C465        C470   1.423       .  A
C466        C467   1.403       .  A
C466        H475   1.083       .  S
C467        C468   1.416       .  A
C467        S471   1.804       .  S
C468        C469   1.401       .  A
C469        C470   1.398       .  A
C469        H476   1.083       .  S
C470        S472   1.804       .  S
S471        H474   1.407       .  S
S472        H473   1.408       .  S
C477        C478   1.406       .  A
C477        C482   1.412       .  A
C478        C479   1.405       .  A
C478        H487   1.084       .  S
C479        C480   1.412       .  A
C479        S483   1.802       .  S
C480        C481   1.404       .  A
C481        C482   1.392       .  A
C481        H488   1.085       .  S
C482        S484   1.807       .  S
S483        H486   1.407       .  S
S484        H485   1.406       .  S
C489        C490   1.407       .  A
C489        C494   1.419       .  A
C490        C491   1.407       .  A
C490        H499   1.084       .  S
C491        C492   1.415       .  A
C491        S495   1.803       .  S
C492        C493   1.403       .  A
C493        C494   1.404       .  A
C493        H500   1.084       .  S
C494        S496   1.803       .  S
S495        H498   1.406       .  S
S496        H497   1.407       .  S
C501        C502   1.405       .  A
C501        C506   1.414       .  A
C502        C503   1.400       .  A
C502        H511   1.084       .  S
C503        C504   1.412       .  A
C503        S507   1.805       .  S
C504        C505   1.403       .  A
C505        C506   1.399       .  A
C505        H512   1.084   1_655  S
C506        S508   1.804       .  S
S507        H510   1.406       .  S
S508        H509   1.406       .  S
C513        C514   1.403       .  A
C513        C518   1.416       .  A
C514        C515   1.401       .  A
C514        H523   1.083       .  S
C515        C516   1.422       .  A
C515        S519   1.801       .  S
C516        C517   1.406       .  A
C517        C518   1.400       .  A
C517        H524   1.083       .  S
C518        S520   1.804       .  S
S519        H522   1.408       .  S
S520        H521   1.407       .  S
C525        C526   1.403       .  A
C525        C530   1.412       .  A
C526        C527   1.399       .  A
C526        H535   1.083       .  S
C527        C528   1.411       .  A
C527        S531   1.804       .  S
C528        C529   1.403       .  A
C529        C530   1.400       .  A
C529        H536   1.084       .  S
C530        S532   1.801       .  S
S531        H534   1.406       .  S
S532        H533   1.404       .  S
C537        C538   1.406       .  A
C537        C542   1.415       .  A
C538        C539   1.397       .  A
C538        H547   1.081       .  S
C539        C540   1.412       .  A
C539        S543   1.804       .  S
C540        C541   1.405       .  A
C541        C542   1.404       .  A
C541        H548   1.082       .  S
C542        S544   1.809       .  S
S543        H546   1.407       .  S
S544        H545   1.407       .  S
C549        C550   1.403       .  A
C549        C554   1.412       .  A
C550        C551   1.400       .  A
C550        H559   1.084       .  S
C551        C552   1.412       .  A
C551        S555   1.803       .  S
C552        C553   1.403       .  A
C553        C554   1.399       .  A
C553        H560   1.084       .  S
C554        S556   1.801       .  S
S555        H558   1.407       .  S
S556        H557   1.404       .  S
C561        C562   1.407       .  A
C561        C566   1.425       .  A
C562        C563   1.399       .  A
C562        H571   1.083       .  S
C563        C564   1.412       .  A
C563        S567   1.804       .  S
C564        C565   1.399       .  A
C565        C566   1.401       .  A
C565        H572   1.083       .  S
C566        S568   1.809       .  S
S567        H570   1.406       .  S
S568        H569   1.407       .  S
C573        C574   1.405       .  A
C573        C578   1.411       .  A
C574        C575   1.400       .  A
C574        H583   1.084       .  S
C575        C576   1.415       .  A
C575        S579   1.804       .  S
C576        C577   1.407       .  A
C577        C578   1.398       .  A
C577        H584   1.084       .  S
C578        S580   1.799       .  S
S579        H582   1.407       .  S
S580        H581   1.407       .  S
C585        C586   1.404       .  A
C585        C590   1.410       .  A
C586        C587   1.405       .  A
C586        H595   1.084       .  S
C587        C588   1.413       .  A
C587        S591   1.803       .  S
C588        C589   1.403       .  A
C589        C590   1.392       .  A
C589        H596   1.086       .  S
C590        S592   1.806       .  S
S591        H594   1.404       .  S
S592        H593   1.405       .  S
C597        C598   1.405   1_556  A
C597        C602   1.419       .  A
C598        C599   1.402   1_554  A
C598        H607   1.084       .  S
C599        C600   1.421       .  A
C599        S603   1.801   1_556  S
C600        C601   1.408       .  A
C601        C602   1.404       .  A
C601        H608   1.084       .  S
C602        S604   1.805   1_545  S
S603        H606   1.408       .  S
S604        H605   1.407       .  S
C609        C610   1.402       .  A
C609        C614   1.414       .  A
C610        C611   1.400       .  A
C610        H619   1.084       .  S
C611        C612   1.421       .  A
C611        S615   1.802       .  S
C612        C613   1.408       .  A
C613        C614   1.405       .  A
C613        H620   1.083       .  S
C614        S616   1.807   1_556  S
S615        H618   1.408       .  S
S616        H617   1.407       .  S
C621        C622   1.404       .  A
C621        C626   1.410       .  A
C622        C623   1.402       .  A
C622        H631   1.084       .  S
C623        C624   1.411       .  A
C623        S627   1.801       .  S
C624        C625   1.402       .  A
C625        C626   1.392       .  A
C625        H632   1.084       .  S
C626        S628   1.806       .  S
S627        H630   1.404       .  S
S628        H629   1.405       .  S
C633        C634   1.408       .  A
C633        C638   1.426       .  A
C634        C635   1.403       .  A
C634        H643   1.084       .  S
C635        C636   1.414       .  A
C635        S639   1.804       .  S
C636        C637   1.401       .  A
C637        C638   1.408       .  A
C637        H644   1.083       .  S
C638        S640   1.811       .  S
S639        H642   1.407       .  S
S640        H641   1.406       .  S
C645        C646   1.399       .  A
C645        C650   1.412       .  A
C646        C647   1.400       .  A
C646        H655   1.084       .  S
C647        C648   1.418       .  A
C647        S651   1.803       .  S
C648        C649   1.405       .  A
C649        C650   1.406       .  A
C649        H656   1.083       .  S
C650        S652   1.806       .  S
S651        H654   1.407       .  S
S652        H653   1.407       .  S
C657        C658   1.407       .  A
C657        C662   1.418       .  A
C658        C659   1.398       .  A
C658        H667   1.083       .  S
C659        C660   1.414       .  A
C659        S663   1.805       .  S
C660        C661   1.404       .  A
C661        C662   1.400       .  A
C661        H668   1.081       .  S
C662        S664   1.810       .  S
S663        H666   1.407       .  S
S664        H665   1.407       .  S
C669        C670   1.406       .  A
C669        C674   1.413       .  A
C670        C671   1.400       .  A
C670        H679   1.083       .  S
C671        C672   1.411       .  A
C671        S675   1.804       .  S
C672        C673   1.406       .  A
C673        C674   1.402       .  A
C673        H680   1.085       .  S
C674        S676   1.803       .  S
S675        H678   1.406       .  S
S676        H677   1.407       .  S
C681        C682   1.402       .  A
C681        C686   1.412       .  A
C682        C683   1.399       .  A
C682        H691   1.084       .  S
C683        C684   1.414       .  A
C683        S687   1.805       .  S
C684        C685   1.405       .  A
C685        C686   1.402       .  A
C685        H692   1.084       .  S
C686        S688   1.801       .  S
S687        H690   1.407       .  S
S688        H689   1.404       .  S
C693        C694   1.403       .  A
C693        C698   1.410       .  A
C694        C695   1.398       .  A
C694        H703   1.083       .  S
C695        C696   1.413       .  A
C695        S699   1.804       .  S
C696        C697   1.404       .  A
C697        C698   1.396       .  A
C697        H704   1.083       .  S
C698        S700   1.804       .  S
S699        H702   1.408       .  S
S700        H701   1.406       .  S
C705        C706   1.402       .  A
C705        C710   1.411       .  A
C706        C707   1.399       .  A
C706        H715   1.084       .  S
C707        C708   1.415       .  A
C707        S711   1.804       .  S
C708        C709   1.404       .  A
C709        C710   1.395       .  A
C709        H716   1.084       .  S
C710        S712   1.805       .  S
S711        H714   1.406       .  S
S712        H713   1.406       .  S
C717        C718   1.404       .  A
C717        C722   1.413       .  A
C718        C719   1.398       .  A
C718        H727   1.084       .  S
C719        C720   1.409       .  A
C719        S723   1.802       .  S
C720        C721   1.401       .  A
C721        C722   1.403       .  A
C721        H728   1.083       .  S
C722        S724   1.808       .  S
S723        H726   1.407       .  S
S724        H725   1.407       .  S
C729        C730   1.408       .  A
C729        C734   1.420       .  A
C730        C731   1.401       .  A
C730        H739   1.084       .  S
C731        C732   1.417       .  A
C731        S735   1.805   1_556  S
C732        C733   1.403       .  A
C733        C734   1.398       .  A
C733        H740   1.083       .  S
C734        S736   1.802       .  S
S735        H738   1.407       .  S
S736        H737   1.408       .  S
C741        C742   1.405       .  A
C741        C746   1.414       .  A
C742        C743   1.400       .  A
C742        H751   1.083       .  S
C743        C744   1.409       .  A
C743        S747   1.803       .  S
C744        C745   1.403       .  A
C745        C746   1.400       .  A
C745        H752   1.084       .  S
C746        S748   1.805       .  S
S747        H750   1.407       .  S
S748        H749   1.406       .  S
C753        C754   1.407       .  A
C753        C758   1.417       .  A
C754        C755   1.397       .  A
C754        H763   1.082       .  S
C755        C756   1.409       .  A
C755        S759   1.810       .  S
C756        C757   1.402       .  A
C757        C758   1.401       .  A
C757        H764   1.083       .  S
C758        S760   1.803       .  S
S759        H762   1.407       .  S
S760        H761   1.408       .  S
C765        C766   1.404       .  A
C765        C770   1.413       .  A
C766        C767   1.397       .  A
C766        H775   1.084       .  S
C767        C768   1.414       .  A
C767        S771   1.804   1_556  S
C768        C769   1.407       .  A
C769        C770   1.399       .  A
C769        H776   1.084       .  S
C770        S772   1.804       .  S
S771        H774   1.406       .  S
S772        H773   1.407       .  S
C777        C778   1.403       .  A
C777        C782   1.411       .  A
C778        C779   1.401       .  A
C778        H787   1.085       .  S
C779        C780   1.415       .  A
C779        S783   1.803       .  S
C780        C781   1.407       .  A
C781        C782   1.400       .  A
C781        H788   1.085       .  S
C782        S784   1.805       .  S
S783        H786   1.407       .  S
S784        H785   1.405   1_556  S
C789        C790   1.403       .  A
C789        C794   1.409       .  A
C790        C791   1.400       .  A
C790        H799   1.084       .  S
C791        C792   1.413       .  A
C791        S795   1.795       .  S
C792        C793   1.410       .  A
C793        C794   1.404       .  A
C793        H800   1.082       .  S
C794        S796   1.808       .  S
S795        H798   1.407       .  S
S796        H797   1.407       .  S
C801        C802   1.408       .  A
C801        C806   1.418       .  A
C802        C803   1.397   1_556  A
C802        H811   1.083   1_556  S
C803        C804   1.410   1_554  A
C803        S807   1.804       .  S
C804        C805   1.403       .  A
C805        C806   1.402       .  A
C805        H812   1.082   1_565  S
C806        S808   1.809       .  S
S807        H810   1.407       .  S
S808        H809   1.407   1_565  S
C813        C814   1.407       .  A
C813        C818   1.414       .  A
C814        C815   1.402       .  A
C814        H823   1.082       .  S
C815        C816   1.410       .  A
C815        S819   1.800       .  S
C816        C817   1.402       .  A
C817        C818   1.394       .  A
C817        H824   1.082       .  S
C818        S820   1.806   1_556  S
S819        H822   1.406       .  S
S820        H821   1.407       .  S
C825        C826   1.405       .  A
C825        C830   1.414       .  A
C826        C827   1.402       .  A
C826        H835   1.085       .  S
C827        C828   1.411       .  A
C827        S831   1.798       .  S
C828        C829   1.402       .  A
C829        C830   1.398       .  A
C829        H836   1.085       .  S
C830        S832   1.804       .  S
S831        H834   1.405       .  S
S832        H833   1.407       .  S
C837        C838   1.407       .  A
C837        C842   1.420       .  A
C838        C839   1.403       .  A
C838        H847   1.078       .  S
C839        C840   1.410       .  A
C839        S843   1.808       .  S
C840        C841   1.403       .  A
C841        C842   1.405       .  A
C841        H848   1.081       .  S
C842        S844   1.807       .  S
S843        H846   1.407       .  S
S844        H845   1.407       .  S
C849        C850   1.406       .  A
C849        C854   1.416       .  A
C850        C851   1.397       .  A
C850        H859   1.085       .  S
C851        C852   1.409       .  A
C851        S855   1.803       .  S
C852        C853   1.403       .  A
C853        C854   1.401       .  A
C853        H860   1.084       .  S
C854        S856   1.804       .  S
S855        H858   1.407       .  S
S856        H857   1.407       .  S
C861        C862   1.407       .  A
C861        C866   1.426       .  A
C862        C863   1.399       .  A
C862        H871   1.083       .  S
C863        C864   1.412       .  A
C863        S867   1.804       .  S
C864        C865   1.399       .  A
C865        C866   1.402       .  A
C865        H872   1.083       .  S
C866        S868   1.813       .  S
S867        H870   1.407       .  S
S868        H869   1.406       .  S
C873        C874   1.403       .  A
C873        C878   1.416       .  A
C874        C875   1.396       .  A
C874        H883   1.083       .  S
C875        C876   1.412       .  A
C875        S879   1.805       .  S
C876        C877   1.402       .  A
C877        C878   1.398       .  A
C877        H884   1.083       .  S
C878        S880   1.799       .  S
S879        H882   1.407       .  S
S880        H881   1.407       .  S
C885        C886   1.409       .  A
C885        C890   1.420       .  A
C886        C887   1.397       .  A
C886        H895   1.083       .  S
C887        C888   1.410       .  A
C887        S891   1.805   1_545  S
C888        C889   1.403       .  A
C889        C890   1.403       .  A
C889        H896   1.084       .  S
C890        S892   1.801       .  S
S891        H894   1.406       .  S
S892        H893   1.407       .  S
