geometry optimzed in LAMMPS
_audit_creation_date              2020-12-01 
_audit_creation_method            'lammps2cif' 
_symmetry_space_group_name_H-M    'P1' 
_symmetry_Int_Tables_number       1 
_symmetry_cell_setting            triclinic 
loop_ 
_symmetry_equiv_pos_as_xyz 
  x,y,z 
_cell_length_a                    37.17726983 
_cell_length_b                    35.94768579863971 
_cell_length_c                    68.45552056835889 
_cell_angle_alpha                 89.31275374976292 
_cell_angle_beta                  90.16768149310525 
_cell_angle_gamma                 91.3365847571218 
loop_ 
_atom_site_label 
_atom_site_type_symbol 
_atom_site_fract_x 
_atom_site_fract_y 
_atom_site_fract_z 
_atom_site_charge 
N1          N  0.44824248  0.51326660  0.49417830    -0.35000
N2          N  0.00502629  0.49877889  0.46643543    -0.55600
N3          N  0.05782689  0.00412897  0.49772846    -0.35000
N4          N  0.00078141  0.01578370  0.52602684    -0.55600
C5          C  0.42844579  0.50243991  0.47850091     0.28500
C6          C  0.42613098  0.01252657  0.50985835     0.28600
C7          C  0.07836816  0.49069796  0.48322832     0.28500
C8          C  0.07625507  0.99994037  0.51465753     0.28500
C9          C  0.47740857  0.50243313  0.45374756     0.37200
C10         C  0.03527893  0.49831068  0.45558849     0.37200
C11         C  0.47151986  0.02756070  0.53573789     0.37200
C12         C  0.02975317  0.02260499  0.53762408     0.37200
C13         C  0.39325791  0.49499866  0.48427533    -0.20300
C14         C  0.39176818  0.00145117  0.50402387    -0.20300
C15         C  0.11031255  0.47789119  0.49102301    -0.20300
C16         C  0.10900111  0.98373679  0.51083698    -0.20300
C17         C  0.49012292  0.50399647  0.43473086    -0.21400
C18         C  0.02680160  0.50142084  0.43589279    -0.21400
C19         C  0.48190047  0.04135979  0.55377553    -0.21400
C20         C  0.01874286  0.03823867  0.55496572    -0.21400
C21         C  0.44076387  0.50101350  0.45898151    -0.19500
C22         C  0.43547494  0.02405184  0.52896309    -0.16700
C23         C  0.06563517  0.01308647  0.53313794    -0.16700
C24         C  0.07000492  0.49189242  0.46305958    -0.16700
H25         H  0.37083466  0.48625042  0.47517249     0.16200
H26         H  0.36796649  0.99856680  0.51303236     0.16200
H27         H  0.13248867  0.46603598  0.48321227     0.16200
H28         H  0.13003293  0.97725534  0.52121372     0.16200
H29         H  0.47455073  0.50607733  0.42139425     0.14500
H30         H  0.04503755  0.50112123  0.42360338     0.14500
H31         H  0.46470182  0.05227032  0.56496777     0.14500
H32         H  0.03546384  0.04629293  0.56724693     0.14500
H33         H  0.47418126  0.52466461  0.49382745     0.27700
H34         H  0.03471372  0.01949898  0.49587571     0.27700
N35         N  0.05538963  0.27569948  0.50977722    -0.35000
N36         N  0.50284982  0.29486426  0.48003517    -0.55600
N37         N  0.44484921  0.28363364  0.50890296    -0.35000
N38         N  0.49695669  0.26154440  0.53790102    -0.55600
C39         C  0.07694946  0.27738379  0.49381931     0.28500
C40         C  0.07349614  0.25788011  0.52418274     0.28600
C41         C  0.42555402  0.28628830  0.49220181     0.28500
C42         C  0.42257318  0.26904852  0.52280011     0.28500
C43         C  0.03317890  0.30397685  0.46993857     0.37200
C44         C  0.47476218  0.30749929  0.46942390     0.37200
C45         C  0.02533334  0.25558677  0.54977212     0.37200
C46         C  0.46746127  0.26090284  0.54941530     0.37200
C47         C  0.10956126  0.26133964  0.49835495    -0.20300
C48         C  0.10734490  0.24896130  0.51742863    -0.20300
C49         C  0.39042998  0.27386579  0.49565715    -0.20300
C50         C  0.38857946  0.26303898  0.51492649    -0.20300
C51         C  0.02422856  0.32226881  0.45271041    -0.21400
C52         C  0.48728107  0.32450161  0.45239025    -0.21400
C53         C  0.01377585  0.25122078  0.56894611    -0.21400
C54         C  0.47714296  0.25466844  0.56871996    -0.21400
C55         C  0.06853048  0.29387751  0.47545866    -0.16700
C56         C  0.06094797  0.25037571  0.54342900    -0.16700
C57         C  0.43173371  0.26182032  0.54250998    -0.16700
C58         C  0.43797099  0.30149185  0.47421487    -0.16700
H59         H  0.13258127  0.25861788  0.48887987     0.16200
H60         H  0.12839698  0.23504645  0.52542405     0.16200
H61         H  0.36827197  0.27271037  0.48537942     0.16200
H62         H  0.36485906  0.25193408  0.52227745     0.16200
H63         H  0.04237688  0.33251203  0.44143237     0.14500
H64         H  0.47141656  0.33674819  0.44080551     0.14500
H65         H  0.02995314  0.24529009  0.58173043     0.14500
H66         H  0.45955726  0.25177125  0.58124713     0.14500
H67         H  0.03097799  0.28881513  0.51130269     0.27700
H68         H  0.47059521  0.29472803  0.51110337     0.27700
O69         O  0.29372530  0.32909793  0.40139501    -0.78600
O70         O  0.20689365  0.32694002  0.35240066    -0.78600
O71         O  0.21371942  0.37164842  0.41704260    -0.78600
O72         O  0.28088556  0.34963646  0.33721859    -0.78500
O73         O  0.20275699  0.32810100  0.39479509    -0.78700
O74         O  0.29089822  0.31551126  0.36250120    -0.78600
O75         O  0.21936474  0.36388722  0.32697592    -0.78600
O76         O  0.28680991  0.37730313  0.42020651    -0.78600
C77         C  0.29868515  0.34498237  0.41747275     1.11100
C78         C  0.20733130  0.33295711  0.33374378     1.11000
C79         C  0.20022367  0.33998037  0.41217945     1.11100
C80         C  0.29155805  0.31947746  0.34427617     1.11000
O81         O  0.32265526  0.39214156  0.35552842    -0.78600
O82         O  0.17376810  0.39972000  0.39232154    -0.78600
O83         O  0.28846222  0.44347176  0.39620850    -0.78600
O84         O  0.23821174  0.42770397  0.34437827    -0.78600
O85         O  0.18516396  0.40683231  0.35334845    -0.78600
O86         O  0.32936836  0.40041433  0.39396030    -0.78600
O87         O  0.27303833  0.41881104  0.34409794    -0.78500
O88         O  0.21569045  0.44214430  0.39397722    -0.78600
Co89       Co  0.30509096  0.35977427  0.37823800     1.51500
Co90       Co  0.19793674  0.36580851  0.37369491     1.51700
Co91       Co  0.25090239  0.40758022  0.40497385     1.51600
Co92       Co  0.24156668  0.37526820  0.35157085     1.51500
O93         O  0.25383953  0.38098898  0.37874636    -1.40500
C94         C  0.30725179  0.41790958  0.34588214     1.11100
C95         C  0.18365871  0.43220351  0.39675753     1.11100
C96         C  0.32070488  0.43361854  0.39747221     1.11100
C97         C  0.20452089  0.43180481  0.34462859     1.11100
O98         O  0.32359593  0.14546544  0.60490291    -0.78600
O99         O  0.18445366  0.14530573  0.64439037    -0.78600
O100        O  0.20468336  0.17060552  0.60166797    -0.78600
O101        O  0.26086226  0.17375380  0.64637172    -0.78500
O102        O  0.16641649  0.12517358  0.60804885    -0.78700
O103        O  0.31349775  0.14666664  0.64419989    -0.78600
O104        O  0.21462272  0.13898756  0.67201036    -0.78600
O105        O  0.27725353  0.18076459  0.59875049    -0.78600
C106        C  0.31067482  0.17574007  0.59873154     1.11100
C107        C  0.18929362  0.15343351  0.66255294     1.11000
C108        C  0.17295452  0.15766815  0.60149374     1.11100
C109        C  0.29453813  0.17438873  0.64901104     1.11000
O110        O  0.29252073  0.06605400  0.64248645    -0.78600
O111        O  0.20558194  0.05851853  0.60883312    -0.78600
O112        O  0.28344999  0.10940156  0.58004341    -0.78600
O113        O  0.21192675  0.07229837  0.65373669    -0.78600
O114        O  0.15919143  0.07370169  0.63883606    -0.78600
O115        O  0.29980634  0.06935067  0.60294965    -0.78600
O116        O  0.27517455  0.10413844  0.66469815    -0.78500
O117        O  0.21002597  0.09772183  0.58364975    -0.78600
Co118      Co  0.30370304  0.10672331  0.62366272     1.51500
Co119      Co  0.19938044  0.09998767  0.62712629     1.51700
Co120      Co  0.24397272  0.13884169  0.59283945     1.51600
Co121      Co  0.23605181  0.12489557  0.64821442     1.51500
O122        O  0.25016401  0.11757001  0.62028765    -1.40500
C123        C  0.28841296  0.07359876  0.66017378     1.11100
C124        C  0.19999866  0.06634657  0.59096223     1.11100
C125        C  0.30021003  0.08041751  0.58537917     1.11100
C126        C  0.17933477  0.05954736  0.65180955     1.11100
N127        N  0.18211842  0.50975561  0.99242031    -0.35000
N128        N  0.24026515  0.51050492  0.96409957    -0.55600
N129        N  0.29139683  0.49981529  0.99563991    -0.35000
N130        N  0.23345323  0.49704542  0.02355069    -0.55600
C131        C  0.16352065  0.50877481  0.97540586     0.28500
C132        C  0.15986265  0.49645611  0.00666283     0.28600
C133        C  0.31198469  0.49174196  0.98004203     0.28500
C134        C  0.30867033  0.48724815  0.01176287     0.28500
C135        C  0.21386012  0.52421066  0.95267517     0.37200
C136        C  0.27132876  0.51529489  0.95404768     0.37200
C137        C  0.20332383  0.50040445  0.03422600     0.37200
C138        C  0.26132073  0.49937260  0.03616359     0.37200
C139        C  0.12882500  0.49534729  0.97887730    -0.20300
C140        C  0.12661524  0.48721969  0.99859335    -0.20300
C141        C  0.34275276  0.47403015  0.98635507    -0.20300
C142        C  0.34068067  0.47124295  0.00638808    -0.20300
C143        C  0.22818304  0.53754503  0.93519026    -0.21400
C144        C  0.26460724  0.53171420  0.93602610    -0.21400
C145        C  0.21202913  0.50507031  0.05377226    -0.21400
C146        C  0.24889708  0.50466322  0.05498603    -0.21400
C147        C  0.17679284  0.52156978  0.95712327    -0.16700
C148        C  0.16830800  0.49471741  0.02682744    -0.16700
C149        C  0.29709246  0.49182805  0.03119426    -0.16700
C150        C  0.30516502  0.50292679  0.96055276    -0.16700
H151        H  0.10739341  0.49166632  0.96829247     0.16200
H152        H  0.10302413  0.47637974  0.00616279     0.16200
H153        H  0.36473032  0.46463479  0.97748167     0.16200
H154        H  0.36063681  0.45911144  0.01591488     0.16200
H155        H  0.21378397  0.04944568  0.92294480     0.14500
H156        H  0.28385934  0.03851810  0.92463557     0.14500
H157        H  0.19370133  0.50753726  0.06592102     0.14500
H158        H  0.26463808  0.50648541  0.06828085     0.14500
H159        H  0.20695675  0.52248152  0.99436822     0.27700
H160        H  0.26944608  0.51680436  0.99554469     0.27700
N161        N  0.27362221  0.23986644  0.00025784    -0.35000
N162        N  0.22041207  0.26085119  0.02880894    -0.55600
N163        N  0.16395465  0.24949914  0.99947605    -0.35000
N164        N  0.21717258  0.23140085  0.97053229    -0.55600
C165        C  0.29543761  0.25522456  0.01407399     0.28500
C166        C  0.29338914  0.23634700  0.98381315     0.28600
C167        C  0.14505648  0.26465531  0.01412582     0.28500
C168        C  0.14411431  0.25279956  0.98290460     0.28500
C169        C  0.24990484  0.26079086  0.04051384     0.37200
C170        C  0.19126181  0.26159876  0.04062102     0.37200
C171        C  0.24460457  0.21578560  0.96094906     0.37200
C172        C  0.18701824  0.22433378  0.95996604     0.37200
C173        C  0.32954862  0.26115747  0.00628644    -0.20300
C174        C  0.32829295  0.24912682  0.98727200    -0.20300
C175        C  0.11273028  0.27754515  0.00681320    -0.20300
C176        C  0.11222406  0.27025246  0.98713008    -0.20300
C177        C  0.23943142  0.26194228  0.05990429    -0.21400
C178        C  0.20232827  0.26219663  0.05998108    -0.21400
C179        C  0.23181582  0.19868966  0.94414815    -0.21400
C180        C  0.19532829  0.20427587  0.94348192    -0.21400
C181        C  0.28603725  0.26203358  0.03379518    -0.16700
C182        C  0.28129541  0.22012550  0.96612460    -0.16700
C183        C  0.15265132  0.23785203  0.96447893    -0.16700
C184        C  0.15517979  0.26506500  0.03409188    -0.16700
H185        H  0.35309546  0.27260139  0.01359180     0.16200
H186        H  0.35061491  0.24969062  0.97714928     0.16200
H187        H  0.09154646  0.29066838  0.01484741     0.16200
H188        H  0.09047011  0.27644549  0.97715448     0.16200
H189        H  0.25671990  0.26274394  0.07264728     0.14500
H190        H  0.18547482  0.26359939  0.07280388     0.14500
H191        H  0.24727783  0.18447056  0.93326936     0.14500
H192        H  0.17708577  0.19495556  0.93210247     0.14500
H193        H  0.24795985  0.22866292  0.00242805     0.27700
H194        H  0.18685115  0.23386000  0.00128197     0.27700
O195        O  0.01890041  0.08435095  0.91336313    -0.78600
O196        O  0.04136463  0.14022549  0.86282783    -0.78600
O197        O  0.00351806  0.03123770  0.85946029    -0.78600
O198        O  0.98940242  0.20462715  0.89849693    -0.78500
O199        O  0.02515911  0.07652261  0.83956016    -0.78700
O200        O  0.02038514  0.15851871  0.91059658    -0.78600
O201        O  0.00986354  0.19156337  0.86086629    -0.78600
O202        O  0.03558845  0.08070840  0.88306506    -0.78600
C203        C  0.04275713  0.07796039  0.90096371     1.11100
C204        C  0.03903304  0.17452249  0.85835932     1.11000
C205        C  0.02219875  0.04181986  0.84440396     1.11100
C206        C  0.01645872  0.19263527  0.90784476     1.11000
O207        O  0.44323247  0.15982168  0.91773764    -0.78600
O208        O  0.45506975  0.08332039  0.84303186    -0.78600
O209        O  0.47077571  0.04113370  0.89843178    -0.78600
O210        O  0.43819935  0.16461529  0.85145952    -0.78600
O211        O  0.48525111  0.14584793  0.83552242    -0.78600
O212        O  0.44213115  0.08443920  0.91435397    -0.78600
O213        O  0.41782516  0.17507028  0.88958092    -0.78500
O214        O  0.43419935  0.05869016  0.86854269    -0.78600
Co215      Co  0.48070979  0.12219616  0.91180030     1.51500
Co216      Co  0.49786355  0.10898117  0.85662890     1.51700
Co217      Co  0.48458586  0.07289481  0.87488583     1.51600
Co218      Co  0.46386036  0.18029506  0.87542638     1.51500
O219        O  0.47246389  0.12538205  0.88211972    -1.40500
C220        C  0.41654580  0.17123295  0.90793719     1.11100
C221        C  0.43173411  0.06226795  0.85066475     1.11100
C222        C  0.44596467  0.05075689  0.91004878     1.11100
C223        C  0.45618317  0.16358616  0.83587481     1.11100
N224        N  0.10283876  0.35316181  0.78148687    -0.35000
N225        N  0.11420109  0.29631058  0.75339823    -0.55600
N226        N  0.13125699  0.35477907  0.72337216    -0.35000
N227        N  0.11613108  0.41148486  0.75096633    -0.55600
C228        C  0.09195832  0.32281901  0.79209485     0.28500
C229        C  0.08959736  0.38334864  0.79029346     0.28600
C230        C  0.12886352  0.32411166  0.71213217     0.28500
C231        C  0.13191600  0.38498785  0.71122105     0.28500
C232        C  0.11190439  0.27403103  0.76950940     0.37200
C233        C  0.12462599  0.27467942  0.73853253     0.37200
C234        C  0.11105332  0.43317666  0.76663628     0.37200
C235        C  0.12829822  0.43415131  0.73634347     0.37200
C236        C  0.07209746  0.33392639  0.80799819    -0.20300
C237        C  0.07042710  0.37202300  0.80682474    -0.20300
C238        C  0.12853990  0.33496224  0.69258616    -0.20300
C239        C  0.13054100  0.37325284  0.69202529    -0.20300
C240        C  0.12024886  0.23792695  0.76478524    -0.21400
C241        C  0.12823210  0.23828501  0.74519247    -0.21400
C242        C  0.11974233  0.46995639  0.76190150    -0.21400
C243        C  0.13076630  0.47054175  0.74274878    -0.21400
C244        C  0.10029136  0.28547797  0.78811925    -0.16700
C245        C  0.09595264  0.42094766  0.78461054    -0.16700
C246        C  0.13457132  0.42278525  0.71693981    -0.16700
C247        C  0.12929223  0.28660095  0.71885168    -0.16700
H248        H  0.05986438  0.31640613  0.81922886     0.16200
H249        H  0.05685792  0.38940653  0.81714368     0.16200
H250        H  0.12724720  0.31711205  0.67997090     0.16200
H251        H  0.13084231  0.39047281  0.67894553     0.16200
H252        H  0.12015309  0.21377585  0.77438191     0.14500
H253        H  0.13566513  0.21434945  0.73679140     0.14500
H254        H  0.11779640  0.99397848  0.77118272     0.14500
H255        H  0.13889613  0.99504939  0.73438473     0.14500
H256        H  0.12134115  0.35375768  0.77020379     0.27700
H257        H  0.13602854  0.35465495  0.73827391     0.27700
N258        N  0.33632706  0.37060041  0.72376916    -0.35000
N259        N  0.36891883  0.31241435  0.74618126    -0.55600
N260        N  0.38090122  0.36446299  0.77906200    -0.35000
N261        N  0.35130334  0.42325712  0.75591514    -0.55600
C262        C  0.33816035  0.34409801  0.70989117     0.28500
C263        C  0.33156273  0.40350230  0.71448391     0.28600
C264        C  0.40100245  0.33540819  0.78487006     0.28500
C265        C  0.39026061  0.39407980  0.79031721     0.28500
C266        C  0.35547265  0.29144848  0.73141625     0.37200
C267        C  0.38022340  0.28843144  0.76011285     0.37200
C268        C  0.33283887  0.44534083  0.74356891     0.37200
C269        C  0.35433252  0.44171879  0.77298378     0.37200
C270        C  0.33355483  0.36020650  0.69159673    -0.20300
C271        C  0.32959090  0.39770046  0.69446698    -0.20300
C272        C  0.42308239  0.34651583  0.80023459    -0.20300
C273        C  0.41628359  0.38346059  0.80366841    -0.20300
C274        C  0.35856967  0.25400098  0.73590031    -0.21400
C275        C  0.37425676  0.25206018  0.75403998    -0.21400
C276        C  0.32404838  0.47801740  0.75283116    -0.21400
C277        C  0.33755093  0.47566748  0.77147276    -0.21400
C278        C  0.34288666  0.30567707  0.71338686    -0.16700
C279        C  0.32698172  0.43825204  0.72355484    -0.16700
C280        C  0.37508581  0.42998481  0.78915736    -0.16700
C281        C  0.39819863  0.29861030  0.77758054    -0.16700
H282        H  0.33329424  0.34643431  0.67762115     0.16200
H283        H  0.32539904  0.41828797  0.68307064     0.16200
H284        H  0.44197949  0.32966413  0.80825552     0.16200
H285        H  0.42903206  0.40052269  0.81474690     0.16200
H286        H  0.35084082  0.23053160  0.72692940     0.14500
H287        H  0.38090692  0.22667919  0.76176306     0.14500
H288        H  0.31001723  0.00146412  0.74666633     0.14500
H289        H  0.33604305  0.99696778  0.78246200     0.14500
H290        H  0.33480704  0.36614903  0.73873973     0.27700
H291        H  0.35939778  0.36279008  0.76940652     0.27700
N292        N  0.11181239  0.12496575  0.21542975    -0.35000
N293        N  0.13144535  0.18295412  0.24227924    -0.55600
N294        N  0.14674252  0.12667577  0.27245775    -0.35000
N295        N  0.12926363  0.06841701  0.24514059    -0.55600
C296        C  0.11309071  0.15485614  0.20311938     0.28500
C297        C  0.11320116  0.09406727  0.20436756     0.28600
C298        C  0.16221988  0.15739530  0.28040125     0.28500
C299        C  0.15926731  0.09677899  0.28236220     0.28500
C300        C  0.11695829  0.20431648  0.22803182     0.37200
C301        C  0.13663231  0.20513287  0.25785008     0.37200
C302        C  0.11477485  0.04625949  0.23118942     0.37200
C303        C  0.13194233  0.04734812  0.26161124     0.37200
C304        C  0.11492806  0.14278474  0.18401635    -0.20300
C305        C  0.11505302  0.10449429  0.18479248    -0.20300
C306        C  0.18460793  0.14693904  0.29567787    -0.20300
C307        C  0.18265265  0.10869869  0.29695221    -0.20300
C308        C  0.11282648  0.24028357  0.23459939    -0.21400
C309        C  0.12535087  0.24082606  0.25349799    -0.21400
C310        C  0.10830660  0.01083092  0.23883697    -0.21400
C311        C  0.11914089  0.01153660  0.25809916    -0.21400
C312        C  0.11098623  0.19257643  0.20866241    -0.16700
C313        C  0.11016371  0.05680415  0.21131759    -0.16700
C314        C  0.14875112  0.05926194  0.27913310    -0.16700
C315        C  0.15470656  0.19457264  0.27512864    -0.16700
H316        H  0.11588640  0.15978175  0.17086235     0.16200
H317        H  0.11599821  0.08637493  0.17230158     0.16200
H318        H  0.20038914  0.16499992  0.30509917     0.16200
H319        H  0.19677176  0.09164790  0.30746710     0.16200
H320        H  0.10272088  0.26386420  0.22647270     0.14500
H321        H  0.12674577  0.26493853  0.26281372     0.14500
H322        H  0.09747752  0.48680606  0.23124758     0.14500
H323        H  0.11837372  0.48818488  0.26824035     0.14500
H324        H  0.10617844  0.12538395  0.23027549     0.27700
H325        H  0.12584931  0.12643074  0.26235557     0.27700
N326        N  0.36626430  0.12144360  0.28199231    -0.35000
N327        N  0.38914539  0.17822374  0.25475920    -0.55600
N328        N  0.41092323  0.12026275  0.22753210    -0.35000
N329        N  0.39174724  0.06379667  0.25557771    -0.55600
C330        C  0.36159529  0.15212327  0.29292155     0.28500
C331        C  0.36739133  0.09188469  0.29436927     0.28600
C332        C  0.42673835  0.15046637  0.21909647     0.28500
C333        C  0.42315175  0.09007514  0.21828337     0.28500
C334        C  0.37054507  0.20000451  0.26691017     0.37200
C335        C  0.39806378  0.19954288  0.23910048     0.37200
C336        C  0.37726295  0.04211471  0.26985443     0.37200
C337        C  0.39591205  0.04164625  0.23996588     0.37200
C338        C  0.35904743  0.14188293  0.31245065    -0.20300
C339        C  0.36292515  0.10390975  0.31338570    -0.20300
C340        C  0.44927971  0.13931433  0.20418723    -0.20300
C341        C  0.44678322  0.10111654  0.20359779    -0.20300
C342        C  0.36804945  0.23556741  0.25905672    -0.21400
C343        C  0.38563887  0.23533499  0.24145173    -0.21400
C344        C  0.37300833  0.00579204  0.26343794    -0.21400
C345        C  0.38460477  0.00556270  0.24444029    -0.21400
C346        C  0.35837559  0.18885530  0.28562790    -0.16700
C347        C  0.36939177  0.05417011  0.28886977    -0.16700
C348        C  0.41184610  0.05311447  0.22217842    -0.16700
C349        C  0.41854921  0.18769712  0.22312099    -0.16700
H350        H  0.35491073  0.15989921  0.32475825     0.16200
H351        H  0.36193660  0.08699481  0.32656784     0.16200
H352        H  0.46515790  0.15690479  0.19440077     0.16200
H353        H  0.46059450  0.08351821  0.19347467     0.16200
H354        H  0.35547091  0.25933758  0.26548728     0.14500
H355        H  0.38900597  0.25886959  0.23155994     0.14500
H356        H  0.36249042  0.48195472  0.27158055     0.14500
H357        H  0.38511826  0.48148560  0.23512443     0.14500
H358        H  0.36445667  0.12018766  0.26690951     0.27700
H359        H  0.38950205  0.12051476  0.23714661     0.27700
O360        O  0.42536447  0.32650512  0.10674598    -0.78600
O361        O  0.07530097  0.34278760  0.13121279    -0.78600
O362        O  0.51183825  0.35158209  0.08061863    -0.78600
O363        O  0.48488812  0.32349386  0.15285836    -0.78500
O364        O  0.01970648  0.32040283  0.10812713    -0.78700
O365        O  0.42845204  0.33285748  0.14673482    -0.78600
O366        O  0.03645206  0.34153622  0.15549566    -0.78600
O367        O  0.43820550  0.35994707  0.08048907    -0.78600
C368        C  0.42202784  0.33232380  0.08863551     1.11100
C369        C  0.06573421  0.33057200  0.14790482     1.11000
C370        C  0.02278375  0.32296339  0.08975476     1.11100
C371        C  0.45285158  0.31412748  0.15466294     1.11000
O372        O  0.42254186  0.41318553  0.14206851    -0.78600
O373        O  0.06019370  0.38734110  0.09879788    -0.78600
O374        O  0.44900214  0.43651091  0.09257431    -0.78600
O375        O  0.02288019  0.41285506  0.16044367    -0.78600
O376        O  0.05184870  0.41591357  0.13339598    -0.78600
O377        O  0.40408378  0.40241927  0.10407722    -0.78600
O378        O  0.45875821  0.39327806  0.16513132    -0.78500
O379        O  0.52098943  0.42950238  0.09153255    -0.78600
Co380      Co  0.42615293  0.36967586  0.12439446     1.51500
Co381      Co  0.03232097  0.36682551  0.12184704     1.51700
Co382      Co  0.48029106  0.39385504  0.08849404     1.51600
Co383      Co  0.49521625  0.37471836  0.14698577     1.51500
O384        O  0.48082522  0.38342200  0.11825836    -1.40500
C385        C  0.43544385  0.41566874  0.15913025     1.11100
C386        C  0.05248478  0.41779238  0.09052563     1.11100
C387        C  0.41582067  0.43071319  0.09485192     1.11100
C388        C  0.04700288  0.42792306  0.15048628     1.11100
C389        C  0.42562143  0.44575108  0.17143792    -0.16900
C390        C  0.42153781  0.47167424  0.18213515     0.07100
C391        C  0.41923723  0.00131533  0.19534357     0.09000
C392        C  0.41696818  0.02548111  0.20729136    -0.17800
C393        C  0.42982949  0.21523562  0.20901194    -0.16900
C394        C  0.43624508  0.23704439  0.19613170     0.07100
C395        C  0.44060629  0.26196784  0.18055594     0.09000
C396        C  0.44435720  0.28453609  0.16775203    -0.17800
C397        C  0.10206006  0.02801870  0.19700102    -0.16900
C398        C  0.09405921  0.00578217  0.18444634     0.07100
C399        C  0.08208627  0.48031313  0.16993159     0.09000
C400        C  0.06835972  0.45758810  0.15910392    -0.17800
C401        C  0.08476897  0.30164333  0.15817365    -0.16900
C402        C  0.09347245  0.27559910  0.16844695     0.07100
C403        C  0.09979315  0.24553316  0.18167569     0.09000
C404        C  0.10458884  0.22090906  0.19362541    -0.17800
C405        C  0.03988064  0.01509138  0.83286048    -0.16900
C406        C  0.05512234  0.99420097  0.82233502     0.07100
C407        C  0.07192912  0.47035450  0.80931538     0.09000
C408        C  0.08426231  0.44891896  0.79796239    -0.17800
C409        C  0.06589348  0.19334412  0.84629467    -0.16900
C410        C  0.07972548  0.21227150  0.83340644     0.07100
C411        C  0.08944589  0.23613092  0.81733499     0.09000
C412        C  0.09498856  0.25764158  0.80375992    -0.17800
C413        C  0.38296123  0.45733712  0.80444335    -0.16900
C414        C  0.38905070  0.48234588  0.81592462     0.07100
C415        C  0.39777718  0.01271629  0.82855174     0.09000
C416        C  0.40928007  0.03757593  0.83893109    -0.17800
C417        C  0.44599978  0.18697589  0.81977457    -0.16900
C418        C  0.43723177  0.21139070  0.80864546     0.07100
C419        C  0.42593868  0.24245546  0.79761877     0.09000
C420        C  0.41455454  0.26889214  0.78874634    -0.17800
C421        C  0.04645839  0.29857218  0.07955406    -0.16900
C422        C  0.07091809  0.28581109  0.07028240     0.07100
C423        C  0.10130614  0.27654767  0.05887208     0.09000
C424        C  0.12676317  0.27097018  0.04834108    -0.17800
C425        C  0.39564628  0.31051095  0.07757294    -0.16900
C426        C  0.37087283  0.29605357  0.06849616     0.07100
C427        C  0.34060969  0.28217296  0.05753594     0.09000
C428        C  0.31514607  0.27222231  0.04745243    -0.17800
C429        C  0.12433017  0.23613320  0.94966048    -0.16900
C430        C  0.09927827  0.23400154  0.93831252     0.07100
C431        C  0.06879017  0.22811241  0.92604043     0.09000
C432        C  0.04314966  0.21692520  0.91665601    -0.17800
C433        C  0.30822365  0.20909480  0.95210955    -0.16900
C434        C  0.33132861  0.20023924  0.94081173     0.07100
C435        C  0.35953155  0.19021202  0.92821476     0.09000
C436        C  0.38480983  0.18170612  0.91830655    -0.17800
C437        C  0.07836685  0.43786540  0.07872793    -0.16900
C438        C  0.09794356  0.45402149  0.06728564     0.07100
C439        C  0.12023452  0.47108263  0.05294401     0.09000
C440        C  0.14061131  0.48340310  0.04067465    -0.17800
C441        C  0.32249347  0.48542099  0.04685694    -0.16900
C442        C  0.34363073  0.47832603  0.05965101     0.07100
C443        C  0.36884408  0.46692399  0.07376991     0.09000
C444        C  0.39070156  0.45323023  0.08449768    -0.17800
C445        C  0.07694540  0.06525482  0.90787943    -0.16900
C446        C  0.10251591  0.05423783  0.91700260     0.07100
C447        C  0.12942081  0.04163962  0.93000474     0.09000
C448        C  0.15106742  0.53173888  0.94207971    -0.17800
C449        C  0.33504115  0.50272057  0.94689714    -0.16900
C450        C  0.36170565  0.00458951  0.93684442     0.07100
C451        C  0.39389573  0.01155176  0.92627308     0.09000
C452        C  0.42021139  0.02449284  0.91814634    -0.17800
C453        C  0.16677920  0.02877303  0.66421156    -0.16900
C454        C  0.15821606  0.00391153  0.67563743     0.07100
C455        C  0.14942384  0.47538053  0.68971812     0.09000
C456        C  0.14250380  0.45143176  0.70196789    -0.17800
C457        C  0.16843075  0.18128250  0.67173700    -0.16900
C458        C  0.15491371  0.20557084  0.68098180     0.07100
C459        C  0.14310921  0.23413443  0.69318610     0.09000
C460        C  0.13569692  0.25819824  0.70449883    -0.17800
C461        C  0.31741403  0.46931873  0.71121513    -0.16900
C462        C  0.31088167  0.49481832  0.70038429     0.07100
C463        C  0.30383720  0.02361002  0.68699273     0.09000
C464        C  0.29736542  0.04711440  0.67497247    -0.17800
C465        C  0.31036972  0.20493317  0.65988278    -0.16900
C466        C  0.32018657  0.22952754  0.67078816     0.07100
C467        C  0.32915738  0.25713728  0.68484429     0.09000
C468        C  0.33567764  0.27966349  0.69751035    -0.17800
C469        C  0.15741727  0.03166348  0.29418659    -0.16900
C470        C  0.16588413  0.00966347  0.30688487     0.07100
C471        C  0.17732315  0.48390156  0.32147779     0.09000
C472        C  0.18859785  0.46104713  0.33300662    -0.17800
C473        C  0.19728207  0.30365708  0.32075269    -0.16900
C474        C  0.18846082  0.27844926  0.31026074     0.07100
C475        C  0.17735484  0.24883238  0.29825932     0.09000
C476        C  0.16722702  0.22384712  0.28792828    -0.17800
C477        C  0.32836714  0.44583559  0.33586745    -0.16900
C478        C  0.34215778  0.47090793  0.32658566     0.07100
C479        C  0.35418758  0.00080087  0.31468134     0.09000
C480        C  0.36192688  0.02577529  0.30351189    -0.17800
C481        C  0.30474428  0.29070163  0.33184102    -0.16900
C482        C  0.31653785  0.26716526  0.32128001     0.07100
C483        C  0.33098730  0.23993170  0.30888890     0.09000
C484        C  0.34352270  0.21677663  0.29835301    -0.17800
C485        C  0.14542418  0.17886647  0.59214603    -0.16900
C486        C  0.12534953  0.19698562  0.58220003     0.07100
C487        C  0.10388885  0.21747999  0.56907292     0.09000
C488        C  0.08537772  0.23356418  0.55735934    -0.17800
C489        C  0.40314315  0.25109675  0.55603895    -0.16900
C490        C  0.38043233  0.23923549  0.56721002     0.07100
C491        C  0.35502700  0.22153631  0.57977724     0.09000
C492        C  0.33424616  0.20277889  0.58944267    -0.17800
C493        C  0.17598285  0.32125316  0.42585953    -0.16900
C494        C  0.15225107  0.31157955  0.43713138     0.07100
C495        C  0.12289064  0.30431619  0.45015055     0.09000
C496        C  0.09784215  0.29954171  0.46136457    -0.17800
C497        C  0.41045869  0.31036572  0.45989715    -0.16900
C498        C  0.38396470  0.31611979  0.45016516     0.07100
C499        C  0.35141312  0.32265518  0.44006826     0.09000
C500        C  0.32490830  0.33048572  0.43080383    -0.17800
C501        C  0.09377528  0.01763825  0.54790889    -0.16900
C502        C  0.11948461  0.02257417  0.55859767     0.07100
C503        C  0.15044969  0.03126479  0.57008856     0.09000
C504        C  0.17547155  0.04341018  0.57966012    -0.17800
C505        C  0.32467045  0.06320376  0.57201837    -0.16900
C506        C  0.34918072  0.05177193  0.56228569     0.07100
C507        C  0.37990224  0.04084760  0.55160252     0.09000
C508        C  0.40598223  0.03280902  0.54205976    -0.17800
C509        C  0.09809148  0.48456958  0.44905727    -0.16900
C510        C  0.11906909  0.47763962  0.43627569     0.07100
C511        C  0.14174794  0.46703276  0.42091439     0.09000
C512        C  0.16075740  0.45403597  0.40863954    -0.17800
C513        C  0.34695732  0.45818371  0.40623219    -0.16900
C514        C  0.36861597  0.47398965  0.41655485     0.07100
C515        C  0.39338113  0.48731943  0.43068157     0.09000
C516        C  0.41452710  0.49509624  0.44349608    -0.17800
N517        N  0.44823994  0.01327186  0.49417683    -0.35000
N518        N  0.00502556  0.99880522  0.46643425    -0.55600
N519        N  0.05782773  0.50412213  0.49772923    -0.35000
N520        N  0.00077852  0.51578712  0.52602629    -0.55600
C521        C  0.42844046  0.00244276  0.47850094     0.28500
C522        C  0.42613255  0.51251103  0.50985942     0.28600
C523        C  0.07836274  0.99070172  0.48322652     0.28500
C524        C  0.07625720  0.49994422  0.51465865     0.28500
C525        C  0.47740191  0.00241210  0.45374685     0.37200
C526        C  0.03527878  0.99834751  0.45558766     0.37200
C527        C  0.47151723  0.52754115  0.53574160     0.37200
C528        C  0.02974930  0.52260247  0.53762511     0.37200
C529        C  0.39325154  0.99501147  0.48427655    -0.20300
C530        C  0.39177212  0.50143071  0.50402336    -0.20300
C531        C  0.11030216  0.97788020  0.49102037    -0.20300
C532        C  0.10900921  0.48375190  0.51083906    -0.20300
C533        C  0.49011455  0.00396172  0.43472963    -0.21400
C534        C  0.02680351  0.00148304  0.43589271    -0.21400
C535        C  0.48189483  0.54133291  0.55378127    -0.21400
C536        C  0.01873765  0.53822941  0.55496826    -0.21400
C537        C  0.44075735  0.00100408  0.45898170    -0.19500
C538        C  0.43547302  0.52403305  0.52896516    -0.16700
C539        C  0.06563233  0.51308735  0.53313896    -0.16700
C540        C  0.07000179  0.99191130  0.46305775    -0.16700
H541        H  0.37082626  0.98626393  0.47517499     0.16200
H542        H  0.36797041  0.49853838  0.51303133     0.16200
H543        H  0.13247440  0.96601991  0.48320861     0.16200
H544        H  0.13004327  0.47727971  0.52121612     0.16200
H545        H  0.47454147  0.00603644  0.42139306     0.14500
H546        H  0.04504067  0.00119612  0.42360354     0.14500
H547        H  0.46469393  0.55223610  0.56497454     0.14500
H548        H  0.03545746  0.54627812  0.56725093     0.14500
H549        H  0.47418107  0.02466385  0.49382435     0.27700
H550        H  0.03470871  0.51948195  0.49587541     0.27700
N551        N  0.05538967  0.77570562  0.50978221    -0.35000
N552        N  0.50284802  0.79486299  0.48002956    -0.55600
N553        N  0.44484469  0.78363909  0.50889670    -0.35000
N554        N  0.49694893  0.76153415  0.53789449    -0.55600
C555        C  0.07694778  0.77738367  0.49382357     0.28500
C556        C  0.07349362  0.75788202  0.52418720     0.28600
C557        C  0.42554932  0.78630390  0.49219601     0.28500
C558        C  0.42256512  0.76905852  0.52279349     0.28500
C559        C  0.03317937  0.80397947  0.46994338     0.37200
C560        C  0.47476276  0.80750126  0.46941758     0.37200
C561        C  0.02533369  0.75559993  0.54977775     0.37200
C562        C  0.46745237  0.76089135  0.54940798     0.37200
C563        C  0.10955565  0.76133011  0.49835788    -0.20300
C564        C  0.10733866  0.74895281  0.51743173    -0.20300
C565        C  0.39042140  0.77389411  0.49565162    -0.20300
C566        C  0.38856882  0.76306380  0.51492034    -0.20300
C567        C  0.02422850  0.82227163  0.45271538    -0.21400
C568        C  0.48728447  0.82449885  0.45238326    -0.21400
C569        C  0.01377665  0.75123874  0.56895207    -0.21400
C570        C  0.47713168  0.75464627  0.56871209    -0.21400
C571        C  0.06853099  0.79388072  0.47546356    -0.16700
C572        C  0.06094720  0.75038422  0.54343439    -0.16700
C573        C  0.43172510  0.76181943  0.54250247    -0.16700
C574        C  0.43797064  0.80150280  0.47420880    -0.16700
H575        H  0.13257319  0.75860128  0.48888176     0.16200
H576        H  0.12838789  0.73503190  0.52542641     0.16200
H577        H  0.36826225  0.77274847  0.48537439     0.16200
H578        H  0.36484542  0.75196569  0.52227111     0.16200
H579        H  0.04237668  0.83251658  0.44143767     0.14500
H580        H  0.47142224  0.83674684  0.44079799     0.14500
H581        H  0.02995420  0.74531063  0.58173664     0.14500
H582        H  0.45954476  0.75174614  0.58123861     0.14500
H583        H  0.03098168  0.78882987  0.51130873     0.27700
H584        H  0.47059435  0.79472235  0.51109699     0.27700
O585        O  0.29371745  0.82910819  0.40139428    -0.78600
O586        O  0.20688052  0.82693940  0.35240416    -0.78600
O587        O  0.21371712  0.87166122  0.41704426    -0.78600
O588        O  0.28086824  0.84963689  0.33721791    -0.78500
O589        O  0.20275224  0.82810912  0.39479949    -0.78700
O590        O  0.29088649  0.81551474  0.36250101    -0.78600
O591        O  0.21934613  0.86388367  0.32697765    -0.78600
O592        O  0.28680758  0.87731697  0.42020389    -0.78600
C593        C  0.29868161  0.84499556  0.41747081     1.11100
C594        C  0.20731598  0.83295339  0.33374691     1.11000
C595        C  0.20022181  0.83999157  0.41218345     1.11100
C596        C  0.29154456  0.81947995  0.34427588     1.11000
O597        O  0.32264219  0.89214228  0.35552399    -0.78600
O598        O  0.17376183  0.89972719  0.39232353    -0.78600
O599        O  0.28845604  0.94348118  0.39620274    -0.78600
O600        O  0.23819695  0.92770374  0.34437614    -0.78600
O601        O  0.18515064  0.90683280  0.35334953    -0.78600
O602        O  0.32936119  0.90042272  0.39395499    -0.78600
O603        O  0.27302369  0.91881004  0.34409408    -0.78500
O604        O  0.21568349  0.94215311  0.39397525    -0.78600
Co605      Co  0.30508117  0.85977993  0.37823560     1.51500
Co606      Co  0.19792729  0.86581237  0.37369736     1.51700
Co607      Co  0.25089752  0.90759126  0.40497173     1.51600
Co608      Co  0.24155175  0.87526948  0.35157106     1.51500
O609        O  0.25383031  0.88099525  0.37874534    -1.40500
C610        C  0.30723754  0.91790766  0.34587648     1.11100
C611        C  0.18365232  0.93221197  0.39675721     1.11100
C612        C  0.32069851  0.93362732  0.39746660     1.11100
C613        C  0.20450612  0.93180420  0.34462773     1.11100
O614        O  0.32359370  0.64546831  0.60490170    -0.78600
O615        O  0.18445233  0.64530167  0.64439115    -0.78600
O616        O  0.20468161  0.67060770  0.60166957    -0.78600
O617        O  0.26085718  0.67374978  0.64637320    -0.78500
O618        O  0.16641431  0.62517556  0.60804972    -0.78700
O619        O  0.31349454  0.64666679  0.64419925    -0.78600
O620        O  0.21462007  0.63897733  0.67201109    -0.78600
O621        O  0.27725081  0.68076689  0.59875033    -0.78600
C622        C  0.31067199  0.67574239  0.59873005     1.11100
C623        C  0.18929151  0.65342535  0.66255416     1.11000
C624        C  0.17295244  0.65767127  0.60149608     1.11100
C625        C  0.29453316  0.67438670  0.64901197     1.11000
O626        O  0.29252080  0.56605302  0.64248343    -0.78600
O627        O  0.20558035  0.55851970  0.60883156    -0.78600
O628        O  0.28344666  0.60940457  0.58004143    -0.78600
O629        O  0.21192579  0.57229145  0.65373497    -0.78600
O630        O  0.15918986  0.57369882  0.63883558    -0.78600
O631        O  0.29980618  0.56935363  0.60294698    -0.78600
O632        O  0.27517386  0.60413364  0.66469667    -0.78500
O633        O  0.21002214  0.59772572  0.58364923    -0.78600
Co634      Co  0.30370156  0.60672472  0.62366097     1.51500
Co635      Co  0.19937877  0.59998628  0.62712581     1.51700
Co636      Co  0.24396984  0.63884424  0.59283917     1.51600
Co637      Co  0.23604934  0.62489008  0.64821424     1.51500
O638        O  0.25016202  0.61756984  0.62028681    -1.40500
C639        C  0.28841382  0.57359553  0.66017104     1.11100
C640        C  0.19999581  0.56634966  0.59096109     1.11100
C641        C  0.30020808  0.58042072  0.58537652     1.11100
C642        C  0.17933267  0.55954295  0.65180887     1.11100
N643        N  0.18211190  0.00974126  0.99242303    -0.35000
N644        N  0.24025717  0.01050665  0.96410188    -0.55600
N645        N  0.29139091  0.99981945  0.99564077    -0.35000
N646        N  0.23344857  0.99703518  0.02355229    -0.55600
C647        C  0.16351398  0.00875780  0.97540860     0.28500
C648        C  0.15985816  0.99643696  0.00666532     0.28600
C649        C  0.31197905  0.99175125  0.98004207     0.28500
C650        C  0.30866642  0.98725000  0.01176267     0.28500
C651        C  0.21384990  0.02421261  0.95267929     0.37200
C652        C  0.27131996  0.01530717  0.95405052     0.37200
C653        C  0.20331936  0.00038956  0.03422827     0.37200
C654        C  0.26131648  0.99936306  0.03616487     0.37200
C655        C  0.12882103  0.99532221  0.97887969    -0.20300
C656        C  0.12661259  0.98719357  0.99859570    -0.20300
C657        C  0.34274880  0.97404074  0.98635351    -0.20300
C658        C  0.34067785  0.97124895  0.00638640    -0.20300
C659        C  0.22817068  0.03755868  0.93519619    -0.21400
C660        C  0.26459603  0.03173428  0.93603119    -0.21400
C661        C  0.21202524  0.00505258  0.05377469    -0.21400
C662        C  0.24889328  0.00464857  0.05498785    -0.21400
C663        C  0.17678318  0.02156074  0.95712695    -0.16700
C664        C  0.16830353  0.99470169  0.02682989    -0.16700
C665        C  0.29708893  0.99182460  0.03119443    -0.16700
C666        C  0.30515740  0.00294001  0.96055369    -0.16700
H667        H  0.10739007  0.99163791  0.96829479     0.16200
H668        H  0.10302336  0.97634873  0.00616505     0.16200
H669        H  0.36472675  0.96464934  0.97747917     0.16200
H670        H  0.36063539  0.95911707  0.01591216     0.16200
H671        H  0.21379839  0.54942874  0.92293725     0.14500
H672        H  0.28387139  0.53848890  0.92462956     0.14500
H673        H  0.19369788  0.00751558  0.06592394     0.14500
H674        H  0.26463482  0.00646987  0.06828251     0.14500
H675        H  0.20694593  0.02247272  0.99437123     0.27700
H676        H  0.26943998  0.01680554  0.99554702     0.27700
N677        N  0.27361772  0.73987579  0.00025581    -0.35000
N678        N  0.22040686  0.76084995  0.02881041    -0.55600
N679        N  0.16394751  0.74949655  0.99947953    -0.35000
N680        N  0.21716619  0.73140764  0.97053252    -0.55600
C681        C  0.29543144  0.75523685  0.01407162     0.28500
C682        C  0.29338255  0.73636438  0.98380982     0.28600
C683        C  0.14504776  0.76464564  0.01413075     0.28500
C684        C  0.14410419  0.75279296  0.98290906     0.28500
C685        C  0.24990133  0.76078812  0.04051406     0.37200
C686        C  0.19125788  0.76159219  0.04062381     0.37200
C687        C  0.24459847  0.71579456  0.96094829     0.37200
C688        C  0.18701050  0.72433522  0.95996833     0.37200
C689        C  0.32953977  0.76118080  0.00628239    -0.20300
C690        C  0.32828382  0.74915341  0.98726729    -0.20300
C691        C  0.11271659  0.77752652  0.00681999    -0.20300
C692        C  0.11220942  0.77023580  0.98713665    -0.20300
C693        C  0.23943026  0.76193231  0.05990510    -0.21400
C694        C  0.20232699  0.76218467  0.05998346    -0.21400
C695        C  0.23180843  0.69869393  0.94414905    -0.21400
C696        C  0.19531988  0.70427545  0.94348470    -0.21400
C697        C  0.28603296  0.76203797  0.03379395    -0.16700
C698        C  0.28128999  0.72014109  0.96612146    -0.16700
C699        C  0.15264255  0.73785002  0.96448240    -0.16700
C700        C  0.15517433  0.76505711  0.03409646    -0.16700
H701        H  0.35308507  0.77262979  0.01358710     0.16200
H702        H  0.35060388  0.74972511  0.97714327     0.16200
H703        H  0.09152991  0.79064212  0.01485554     0.16200
H704        H  0.09045174  0.77642286  0.97716239     0.16200
H705        H  0.25672040  0.76273101  0.07264747     0.14500
H706        H  0.18547512  0.76358188  0.07280712     0.14500
H707        H  0.24727010  0.68447471  0.93327016     0.14500
H708        H  0.17707607  0.69495042  0.93210689     0.14500
H709        H  0.24795674  0.72866384  0.00242740     0.27700
H710        H  0.18685045  0.73386370  0.00128365     0.27700
O711        O  0.01890383  0.58435543  0.91336426    -0.78600
O712        O  0.04136014  0.64022479  0.86282571    -0.78600
O713        O  0.00351155  0.53123314  0.85946548    -0.78600
O714        O  0.98940027  0.70462950  0.89849503    -0.78500
O715        O  0.02515294  0.57651428  0.83956299    -0.78700
O716        O  0.02038776  0.65852350  0.91059368    -0.78600
O717        O  0.00985676  0.69156133  0.86086389    -0.78600
O718        O  0.03558622  0.58070833  0.88306550    -0.78600
C719        C  0.04275825  0.57796271  0.90096386     1.11100
C720        C  0.03902645  0.67452122  0.85835607     1.11000
C721        C  0.02219251  0.54181232  0.84440876     1.11100
C722        C  0.01645802  0.69263977  0.90784253     1.11000
O723        O  0.44322630  0.65981901  0.91773676    -0.78600
O724        O  0.45507826  0.58332368  0.84302973    -0.78600
O725        O  0.47077976  0.54113247  0.89842999    -0.78600
O726        O  0.43820737  0.66461906  0.85145766    -0.78600
O727        O  0.48526238  0.64585219  0.83552309    -0.78600
O728        O  0.44212952  0.58443553  0.91435117    -0.78600
O729        O  0.41782566  0.67507391  0.88957899    -0.78500
O730        O  0.43420716  0.55868841  0.86853918    -0.78600
Co731      Co  0.48070663  0.62219509  0.91180018     1.51500
Co732      Co  0.49787033  0.60898324  0.85662928     1.51700
Co733      Co  0.48459176  0.57289559  0.87488486     1.51600
Co734      Co  0.46386383  0.68029663  0.87542633     1.51500
O735        O  0.47246567  0.62538241  0.88211912    -1.40500
C736        C  0.41654321  0.67123689  0.90793537     1.11100
C737        C  0.43174258  0.56226940  0.85066137     1.11100
C738        C  0.44596714  0.55075337  0.91004664     1.11100
C739        C  0.45619452  0.66359067  0.83587401     1.11100
N740        N  0.10282473  0.85316261  0.78147966    -0.35000
N741        N  0.11419396  0.79630973  0.75339369    -0.55600
N742        N  0.13125816  0.85477550  0.72336742    -0.35000
N743        N  0.11612554  0.91148297  0.75095902    -0.55600
C744        C  0.09194200  0.82282072  0.79208771     0.28500
C745        C  0.08958084  0.88335024  0.79028435     0.28600
C746        C  0.12886424  0.82410757  0.71212794     0.28500
C747        C  0.13191962  0.88498332  0.71121575     0.28500
C748        C  0.11189464  0.77403135  0.76950517     0.37200
C749        C  0.12462184  0.77467757  0.73852911     0.37200
C750        C  0.11104552  0.93317586  0.76662827     0.37200
C751        C  0.12829883  0.93414787  0.73633705     0.37200
C752        C  0.07207665  0.83392945  0.80798908    -0.20300
C753        C  0.07040608  0.87202607  0.80681434    -0.20300
C754        C  0.12854321  0.83495679  0.69258169    -0.20300
C755        C  0.13054623  0.87324728  0.69202015    -0.20300
C756        C  0.12024066  0.73792703  0.76478233    -0.21400
C757        C  0.12822734  0.73828369  0.74519003    -0.21400
C758        C  0.11973921  0.96995469  0.76189388    -0.21400
C759        C  0.13076852  0.97053837  0.74274213    -0.21400
C760        C  0.10027737  0.78547953  0.78811393    -0.16700
C761        C  0.09593937  0.92094872  0.78460142    -0.16700
C762        C  0.13457539  0.92278067  0.71693408    -0.16700
C763        C  0.12929041  0.78659752  0.71884830    -0.16700
H764        H  0.05984108  0.81641007  0.81921934     0.16200
H765        H  0.05683429  0.88941069  0.81713173     0.16200
H766        H  0.12725093  0.81710576  0.67996675     0.16200
H767        H  0.13084960  0.89046650  0.67894012     0.16200
H768        H  0.12014331  0.71377662  0.77437950     0.14500
H769        H  0.13566208  0.71434755  0.73678987     0.14500
H770        H  0.11779975  0.49397965  0.77119073     0.14500
H771        H  0.13888928  0.49505379  0.73439093     0.14500
H772        H  0.12133069  0.85375764  0.77019831     0.27700
H773        H  0.13602835  0.85465221  0.73826929     0.27700
N774        N  0.33632730  0.87060111  0.72377046    -0.35000
N775        N  0.36891638  0.81241310  0.74618181    -0.55600
N776        N  0.38090973  0.86446223  0.77906094    -0.35000
N777        N  0.35131353  0.92325811  0.75591498    -0.55600
C778        C  0.33815669  0.84409770  0.70989274     0.28500
C779        C  0.33156528  0.90350319  0.71448494     0.28600
C780        C  0.40101239  0.83540724  0.78486719     0.28500
C781        C  0.39027266  0.89407875  0.79031553     0.28500
C782        C  0.35546242  0.79144744  0.73141875     0.37200
C783        C  0.38021975  0.78843021  0.76011367     0.37200
C784        C  0.33284792  0.94534243  0.74356953     0.37200
C785        C  0.35434391  0.94171890  0.77298385     0.37200
C786        C  0.33355158  0.86020598  0.69159822    -0.20300
C787        C  0.32959142  0.89770068  0.69446813    -0.20300
C788        C  0.42309743  0.84651478  0.80022963    -0.20300
C789        C  0.41629961  0.88345946  0.80366436    -0.20300
C790        C  0.35855208  0.75399982  0.73590460    -0.21400
C791        C  0.37424346  0.75205891  0.75404326    -0.21400
C792        C  0.32405889  0.97801885  0.75283234    -0.21400
C793        C  0.33756281  0.97566794  0.77147361    -0.21400
C794        C  0.34287795  0.80567607  0.71338907    -0.16700
C795        C  0.32698676  0.93825345  0.72355579    -0.16700
C796        C  0.37509695  0.92998327  0.78915718    -0.16700
C797        C  0.39820398  0.79860900  0.77757862    -0.16700
H798        H  0.33328814  0.84643306  0.67762284     0.16200
H799        H  0.32540031  0.91828822  0.68307172     0.16200
H800        H  0.44199661  0.82966282  0.80824891     0.16200
H801        H  0.42905137  0.90052150  0.81474180     0.16200
H802        H  0.35081612  0.73053041  0.72693536     0.14500
H803        H  0.38089044  0.72667787  0.76176720     0.14500
H804        H  0.31000739  0.50146246  0.74666443     0.14500
H805        H  0.33603040  0.49696792  0.78246079     0.14500
H806        H  0.33480754  0.86615059  0.73874091     0.27700
H807        H  0.35940321  0.86278976  0.76940777     0.27700
N808        N  0.11181182  0.62495429  0.21543226    -0.35000
N809        N  0.13144113  0.68294507  0.24227864    -0.55600
N810        N  0.14674584  0.62667360  0.27245773    -0.35000
N811        N  0.12925924  0.56841214  0.24514602    -0.55600
C812        C  0.11310307  0.65484293  0.20312081     0.28500
C813        C  0.11321633  0.59405421  0.20437217     0.28600
C814        C  0.16223317  0.65739412  0.28039478     0.28500
C815        C  0.15928073  0.59677840  0.28235939     0.28500
C816        C  0.11694183  0.70430180  0.22803279     0.37200
C817        C  0.13661839  0.70512318  0.25785049     0.37200
C818        C  0.11476503  0.54625399  0.23119691     0.37200
C819        C  0.13193314  0.54734803  0.26161847     0.37200
C820        C  0.11496735  0.64276905  0.18401922    -0.20300
C821        C  0.11509408  0.60447826  0.18479738    -0.20300
C822        C  0.18464031  0.64694018  0.29566343    -0.20300
C823        C  0.18268503  0.60869972  0.29694018    -0.20300
C824        C  0.11278991  0.74026426  0.23460277    -0.21400
C825        C  0.12531614  0.74080993  0.25350125    -0.21400
C826        C  0.10828561  0.51082996  0.23884790    -0.21400
C827        C  0.11912037  0.51153911  0.25811019    -0.21400
C828        C  0.11098378  0.69256288  0.20866215    -0.16700
C829        C  0.11016709  0.55679284  0.21132349    -0.16700
C830        C  0.14875450  0.55926234  0.27913656    -0.16700
C831        C  0.15470744  0.69456972  0.27512536    -0.16700
H832        H  0.11594186  0.65976464  0.17086497     0.16200
H833        H  0.11605707  0.58635659  0.17230801     0.16200
H834        H  0.20043300  0.66500279  0.30507837     0.16200
H835        H  0.19681575  0.59164997  0.30745077     0.16200
H836        H  0.10267175  0.76384043  0.22647736     0.14500
H837        H  0.12670031  0.76492076  0.26281841     0.14500
H838        H  0.09750332  0.98680696  0.23123484     0.14500
H839        H  0.11839856  0.98817913  0.26822728     0.14500
H840        H  0.10615797  0.62537453  0.23027581     0.27700
H841        H  0.12583953  0.62642731  0.26236345     0.27700
N842        N  0.36625641  0.62145735  0.28199451    -0.35000
N843        N  0.38914097  0.67822848  0.25475669    -0.55600
N844        N  0.41091875  0.62025805  0.22753537    -0.35000
N845        N  0.39173715  0.56380142  0.25558478    -0.55600
C846        C  0.36158813  0.65214087  0.29292055     0.28500
C847        C  0.36738278  0.59190252  0.29437403     0.28600
C848        C  0.42673870  0.65045818  0.21909914     0.28500
C849        C  0.42314712  0.59006667  0.21829021     0.28500
C850        C  0.37053681  0.70001248  0.26690426     0.37200
C851        C  0.39805818  0.69954132  0.23909547     0.37200
C852        C  0.37724875  0.54212535  0.26986279     0.37200
C853        C  0.39589640  0.54164710  0.23997388     0.37200
C854        C  0.35903968  0.64190722  0.31245063    -0.20300
C855        C  0.36291663  0.60393413  0.31338931    -0.20300
C856        C  0.44928456  0.63930008  0.20419325    -0.20300
C857        C  0.44678486  0.60110204  0.20360637    -0.20300
C858        C  0.36803690  0.73557121  0.25904598    -0.21400
C859        C  0.38562799  0.73533277  0.24144149    -0.21400
C860        C  0.37298533  0.50580252  0.26344796    -0.21400
C861        C  0.38458054  0.50556710  0.24445003    -0.21400
C862        C  0.35836851  0.68887032  0.28562329    -0.16700
C863        C  0.36938211  0.55418594  0.28887786    -0.16700
C864        C  0.41183470  0.55310823  0.22218621    -0.16700
C865        C  0.41854823  0.68769063  0.22311880    -0.16700
H866        H  0.35490271  0.65992776  0.32475648     0.16200
H867        H  0.36192707  0.58702355  0.32657296     0.16200
H868        H  0.46516699  0.65688678  0.19440695     0.16200
H869        H  0.46059755  0.58349961  0.19348582     0.16200
H870        H  0.35545439  0.75934254  0.26547303     0.14500
H871        H  0.38899283  0.75886301  0.23154663     0.14500
H872        H  0.36251879  0.98194025  0.27156930     0.14500
H873        H  0.38514855  0.98148294  0.23511367     0.14500
H874        H  0.36444911  0.62019652  0.26691065     0.27700
H875        H  0.38949182  0.62051448  0.23714811     0.27700
O876        O  0.42536234  0.82650448  0.10674542    -0.78600
O877        O  0.07529251  0.84278636  0.13121823    -0.78600
O878        O  0.51183830  0.85158024  0.08062000    -0.78600
O879        O  0.48488215  0.82349063  0.15285651    -0.78500
O880        O  0.01969905  0.82040128  0.10813158    -0.78700
O881        O  0.42844651  0.83285805  0.14673438    -0.78600
O882        O  0.03644586  0.84153478  0.15550200    -0.78600
O883        O  0.43820533  0.85994531  0.08048847    -0.78600
C884        C  0.42202615  0.83232298  0.08863494     1.11100
C885        C  0.06572767  0.83057058  0.14791068     1.11000
C886        C  0.02277630  0.82296039  0.08975910     1.11100
C887        C  0.45284537  0.81412574  0.15466167     1.11000
O888        O  0.42253989  0.91318589  0.14206628    -0.78600
O889        O  0.06018654  0.88733771  0.09880127    -0.78600
O890        O  0.44900207  0.93650975  0.09257224    -0.78600
O891        O  0.02287476  0.91285088  0.16044590    -0.78600
O892        O  0.05183897  0.91591494  0.13339722    -0.78600
O893        O  0.40408305  0.90241913  0.10407548    -0.78600
O894        O  0.45875281  0.89327585  0.16513003    -0.78500
O895        O  0.52098950  0.92950192  0.09153074    -0.78600
Co896      Co  0.42615061  0.86967593  0.12439327     1.51500
Co897      Co  0.03231294  0.86682537  0.12185060     1.51700
Co898      Co  0.48029094  0.89385364  0.08849337     1.51600
Co899      Co  0.49521165  0.87471559  0.14698539     1.51500
O900        O  0.48082323  0.88342282  0.11825792    -1.40500
C901        C  0.43544105  0.91566849  0.15912808     1.11100
C902        C  0.05247829  0.91778844  0.09052830     1.11100
C903        C  0.41582058  0.93071262  0.09485003     1.11100
C904        C  0.04699356  0.92792355  0.15048752     1.11100
C905        C  0.42562227  0.94575335  0.17143420    -0.16900
C906        C  0.42154328  0.97168009  0.18212920     0.07100
C907        C  0.41922619  0.50130589  0.19535202     0.09000
C908        C  0.41695499  0.52547090  0.20730046    -0.17800
C909        C  0.42983019  0.71522461  0.20900752    -0.16900
C910        C  0.43624442  0.73703373  0.19612713     0.07100
C911        C  0.44060219  0.76196118  0.18055264     0.09000
C912        C  0.44435077  0.78453278  0.16775002    -0.17800
C913        C  0.10206791  0.52800539  0.19700730    -0.16900
C914        C  0.09407052  0.50576932  0.18445169     0.07100
C915        C  0.08207246  0.98032266  0.16992860     0.09000
C916        C  0.06834627  0.95759326  0.15910345    -0.17800
C917        C  0.08476367  0.80164069  0.15817891    -0.16900
C918        C  0.09346917  0.77559356  0.16845013     0.07100
C919        C  0.09979213  0.74552245  0.18167600     0.09000
C920        C  0.10458813  0.72089508  0.19362423    -0.17800
C921        C  0.03987649  0.51508164  0.83286769    -0.16900
C922        C  0.05512307  0.49419169  0.82234410     0.07100
C923        C  0.07192134  0.97036041  0.80930529     0.09000
C924        C  0.08425010  0.94892169  0.79795254    -0.17800
C925        C  0.06588429  0.69334303  0.84628974    -0.16900
C926        C  0.07971351  0.71227151  0.83340104     0.07100
C927        C  0.08943139  0.73613271  0.81732982     0.09000
C928        C  0.09497326  0.75764424  0.80375503    -0.17800
C929        C  0.38296968  0.95733283  0.80444481    -0.16900
C930        C  0.38905439  0.98234016  0.81592755     0.07100
C931        C  0.39778001  0.51272220  0.82854755     0.09000
C932        C  0.40928717  0.53758043  0.83892658    -0.17800
C933        C  0.44601421  0.68698037  0.81977314    -0.16900
C934        C  0.43724686  0.71139366  0.80864293     0.07100
C935        C  0.42595153  0.74245598  0.79761505     0.09000
C936        C  0.41456392  0.76889101  0.78874267    -0.17800
C937        C  0.04645304  0.79856970  0.07955883    -0.16900
C938        C  0.07091365  0.78580791  0.07028780     0.07100
C939        C  0.10130242  0.77654203  0.05887810     0.09000
C940        C  0.12675934  0.77096253  0.04834705    -0.17800
C941        C  0.39564327  0.81051154  0.07757240    -0.16900
C942        C  0.37086924  0.79605549  0.06849544     0.07100
C943        C  0.34060603  0.78217608  0.05753475     0.09000
C944        C  0.31514243  0.77222611  0.04745099    -0.17800
C945        C  0.12432165  0.73613250  0.94966379    -0.16900
C946        C  0.09927088  0.73400356  0.93831499     0.07100
C947        C  0.06878471  0.72811756  0.92604114     0.09000
C948        C  0.04314607  0.71693133  0.91665496    -0.17800
C949        C  0.30821894  0.70911423  0.95210522    -0.16900
C950        C  0.33132517  0.70025923  0.94080755     0.07100
C951        C  0.35952940  0.69022875  0.92821137     0.09000
C952        C  0.38480763  0.68171747  0.91830393    -0.17800
C953        C  0.07836142  0.93786128  0.07873169    -0.16900
C954        C  0.09793832  0.95401691  0.06728958     0.07100
C955        C  0.12022926  0.97107515  0.05294740     0.09000
C956        C  0.14060646  0.98339152  0.04067739    -0.17800
C957        C  0.32249178  0.98541880  0.04685623    -0.16900
C958        C  0.34363024  0.97832501  0.05964980     0.07100
C959        C  0.36884437  0.96692382  0.07376832     0.09000
C960        C  0.39070197  0.95323007  0.08449590    -0.17800
C961        C  0.07694817  0.56525831  0.90787820    -0.16900
C962        C  0.10252149  0.55424343  0.91699991     0.07100
C963        C  0.12943029  0.54164799  0.93000062     0.09000
C964        C  0.15105622  0.03172911  0.94208429    -0.17800
C965        C  0.33503170  0.00273648  0.94689699    -0.16900
C966        C  0.36171563  0.50457500  0.93684492     0.07100
C967        C  0.39390456  0.51154143  0.92627304     0.09000
C968        C  0.42021764  0.52448630  0.91814529    -0.17800
C969        C  0.16677482  0.52877092  0.66421228    -0.16900
C970        C  0.15820987  0.50391243  0.67563982     0.07100
C971        C  0.14943110  0.97537652  0.68971378     0.09000
C972        C  0.14251052  0.95142631  0.70196247    -0.17800
C973        C  0.16842876  0.68127285  0.67173895    -0.16900
C974        C  0.15491121  0.70556178  0.68098279     0.07100
C975        C  0.14310660  0.73412760  0.69318516     0.09000
C976        C  0.13569468  0.75819351  0.70449648    -0.17800
C977        C  0.31741553  0.96931990  0.71121664    -0.16900
C978        C  0.31087989  0.99482025  0.70038685     0.07100
C979        C  0.30384112  0.52360667  0.68698912     0.09000
C980        C  0.29736888  0.54711047  0.67496872    -0.17800
C981        C  0.31036299  0.70493088  0.65988475    -0.16900
C982        C  0.32017776  0.72952529  0.67079067     0.07100
C983        C  0.32914675  0.75713539  0.68484703     0.09000
C984        C  0.33566677  0.77966204  0.69751297    -0.17800
C985        C  0.15742520  0.53166663  0.29419050    -0.16900
C986        C  0.16589575  0.50966754  0.30688846     0.07100
C987        C  0.17730811  0.98389782  0.32147518     0.09000
C988        C  0.18858159  0.96104445  0.33300497    -0.17800
C989        C  0.19726984  0.80365046  0.32075646    -0.16900
C990        C  0.18845330  0.77844408  0.31026220     0.07100
C991        C  0.17735242  0.74883039  0.29825689     0.09000
C992        C  0.16722716  0.72384648  0.28792401    -0.17800
C993        C  0.32835275  0.94582802  0.33585803    -0.16900
C994        C  0.34214838  0.97089425  0.32657420     0.07100
C995        C  0.35418869  0.50081961  0.31469341     0.09000
C996        C  0.36192164  0.52579467  0.30352284    -0.17800
C997        C  0.30473490  0.79070690  0.33184066    -0.16900
C998        C  0.31653122  0.76717591  0.32127746     0.07100
C999        C  0.33098197  0.73994866  0.30888327     0.09000
C1000       C  0.34351695  0.71679558  0.29834619    -0.17800
C1001       C  0.14542161  0.67887250  0.59215075    -0.16900
C1002       C  0.12534707  0.69699399  0.58220592     0.07100
C1003       C  0.10388696  0.71748952  0.56907909     0.09000
C1004       C  0.08537642  0.73357346  0.55736517    -0.17800
C1005       C  0.40313288  0.75109611  0.55603057    -0.16900
C1006       C  0.38042291  0.73923482  0.56720219     0.07100
C1007       C  0.35502031  0.72153625  0.57977135     0.09000
C1008       C  0.33424185  0.70277992  0.58943892    -0.17800
C1009       C  0.17598458  0.82126530  0.42586585    -0.16900
C1010       C  0.15225438  0.81159076  0.43713855     0.07100
C1011       C  0.12289378  0.80432487  0.45015742     0.09000
C1012       C  0.09784412  0.79954774  0.46137051    -0.17800
C1013       C  0.41046130  0.81038049  0.45989031    -0.16900
C1014       C  0.38396830  0.81613664  0.45015811     0.07100
C1015       C  0.35141582  0.82267244  0.44006260     0.09000
C1016       C  0.32490869  0.83050177  0.43080008    -0.17800
C1017       C  0.09377017  0.51764009  0.54791084    -0.16900
C1018       C  0.11947928  0.52257682  0.55859942     0.07100
C1019       C  0.15044529  0.53126835  0.57008893     0.09000
C1020       C  0.17546815  0.54341420  0.57965929    -0.17800
C1021       C  0.32466683  0.56320561  0.57201483    -0.16900
C1022       C  0.34917587  0.55176837  0.56228277     0.07100
C1023       C  0.37989687  0.54083556  0.55160121     0.09000
C1024       C  0.40597765  0.53279143  0.54206019    -0.17800
C1025       C  0.09808607  0.98458637  0.44905465    -0.16900
C1026       C  0.11906298  0.97765454  0.43627310     0.07100
C1027       C  0.14174205  0.96704549  0.42091244     0.09000
C1028       C  0.16075160  0.95404669  0.40863830    -0.17800
C1029       C  0.34695075  0.95819074  0.40622806    -0.16900
C1030       C  0.36860859  0.97399249  0.41655294     0.07100
C1031       C  0.39337248  0.98731609  0.43068191     0.09000
C1032       C  0.41451839  0.99508876  0.44349713    -0.17800
N1033       N  0.94823959  0.51326455  0.49417762    -0.35000
N1034       N  0.50502948  0.49880125  0.46643475    -0.55600
N1035       N  0.55782601  0.00412160  0.49772713    -0.35000
N1036       N  0.50078058  0.01579121  0.52602477    -0.55600
C1037       C  0.92844072  0.50243641  0.47850129     0.28500
C1038       C  0.92613362  0.01251362  0.50986011     0.28600
C1039       C  0.57836821  0.49070636  0.48322771     0.28500
C1040       C  0.57625515  0.99994072  0.51465641     0.28500
C1041       C  0.97740427  0.50239973  0.45374791     0.37200
C1042       C  0.53528295  0.49834272  0.45558834     0.37200
C1043       C  0.97151968  0.02755007  0.53574020     0.37200
C1044       C  0.52975273  0.02261080  0.53762190     0.37200
C1045       C  0.89325020  0.49501081  0.48427581    -0.20300
C1046       C  0.89177375  0.00142878  0.50402528    -0.20300
C1047       C  0.61030985  0.47789082  0.49102167    -0.20300
C1048       C  0.60900363  0.98374113  0.51083686    -0.20300
C1049       C  0.99011704  0.50394407  0.43473064    -0.21400
C1050       C  0.52680760  0.50147211  0.43589315    -0.21400
C1051       C  0.98189922  0.04134872  0.55377809    -0.21400
C1052       C  0.51874366  0.03824672  0.55496323    -0.21400
C1053       C  0.94075946  0.50099299  0.45898248    -0.19500
C1054       C  0.93547507  0.02403825  0.52896517    -0.16700
C1055       C  0.56563421  0.01308998  0.53313605    -0.16700
C1056       C  0.57000678  0.49191202  0.46305888    -0.16700
H1057       H  0.87082491  0.48626533  0.47517373     0.16200
H1058       H  0.86797348  0.99853316  0.51303416     0.16200
H1059       H  0.63248426  0.46603436  0.48321005     0.16200
H1060       H  0.63003677  0.97726562  0.52121387     0.16200
H1061       H  0.97454405  0.50601348  0.42139381     0.14500
H1062       H  0.54504486  0.50118334  0.42360405     0.14500
H1063       H  0.96469957  0.05225674  0.56497057     0.14500
H1064       H  0.53546518  0.04630067  0.56724428     0.14500
H1065       H  0.97418199  0.52465229  0.49382585     0.27700
H1066       H  0.53471034  0.01948731  0.49587326     0.27700
N1067       N  0.55539357  0.27571063  0.50978277    -0.35000
N1068       N  0.00284776  0.29486301  0.48002971    -0.55600
N1069       N  0.94484580  0.28363656  0.50889715    -0.35000
N1070       N  0.99695147  0.26153415  0.53789460    -0.55600
C1071       C  0.57695133  0.27739076  0.49382408     0.28500
C1072       C  0.57349920  0.25788921  0.52418777     0.28600
C1073       C  0.92555002  0.28629946  0.49219645     0.28500
C1074       C  0.92256738  0.26905389  0.52279397     0.28500
C1075       C  0.53318002  0.30398307  0.46994427     0.37200
C1076       C  0.97476183  0.30750125  0.46941823     0.37200
C1077       C  0.52533959  0.25560314  0.54977856     0.37200
C1078       C  0.96745535  0.26089184  0.54940840     0.37200
C1079       C  0.60956110  0.26134115  0.49835849    -0.20300
C1080       C  0.60734539  0.24896391  0.51743238    -0.20300
C1081       C  0.89042328  0.27388601  0.49565203    -0.20300
C1082       C  0.88857168  0.26305550  0.51492079    -0.20300
C1083       C  0.52422751  0.32227518  0.45271653    -0.21400
C1084       C  0.98728268  0.32450045  0.45238417    -0.21400
C1085       C  0.51378361  0.25124224  0.56895312    -0.21400
C1086       C  0.97713561  0.25465030  0.56871268    -0.21400
C1087       C  0.56853243  0.29388567  0.47546380    -0.16700
C1088       C  0.56095321  0.25038969  0.54343485    -0.16700
C1089       C  0.93172788  0.26181722  0.54250311    -0.16700
C1090       C  0.93796997  0.30150026  0.47420939    -0.16700
H1091       H  0.63257908  0.25861489  0.48888241     0.16200
H1092       H  0.62839619  0.23504563  0.52542713     0.16200
H1093       H  0.86826425  0.27273831  0.48537478     0.16200
H1094       H  0.86484925  0.25195516  0.52227161     0.16200
H1095       H  0.54237474  0.33252124  0.44143864     0.14500
H1096       H  0.97141980  0.33674882  0.44079928     0.14500
H1097       H  0.52996213  0.24531607  0.58173758     0.14500
H1098       H  0.95954922  0.25175157  0.58123949     0.14500
H1099       H  0.53098321  0.28883193  0.51130927     0.27700
H1100       H  0.97059367  0.29472254  0.51109748     0.27700
O1101       O  0.79371726  0.32910138  0.40139153    -0.78600
O1102       O  0.70687888  0.32694377  0.35239979    -0.78600
O1103       O  0.71371711  0.37165369  0.41704206    -0.78600
O1104       O  0.78086651  0.34963831  0.33721562    -0.78500
O1105       O  0.70274981  0.32810509  0.39479562    -0.78700
O1106       O  0.79088297  0.31551273  0.36249780    -0.78600
O1107       O  0.71934564  0.36389290  0.32697522    -0.78600
O1108       O  0.78680768  0.37730855  0.42020228    -0.78600
C1109       C  0.79868186  0.34498747  0.41746841     1.11100
C1110       C  0.70731376  0.33296197  0.33374287     1.11000
C1111       C  0.70022029  0.33998533  0.41218010     1.11100
C1112       C  0.79154048  0.31947975  0.34427279     1.11000
O1113       O  0.82264294  0.39213885  0.35552258    -0.78600
O1114       O  0.67376185  0.39972422  0.39232294    -0.78600
O1115       O  0.78845718  0.44347486  0.39620304    -0.78600
O1116       O  0.73819964  0.42770846  0.34437781    -0.78600
O1117       O  0.68515250  0.40683676  0.35334954    -0.78600
O1118       O  0.82936162  0.40041581  0.39395369    -0.78600
O1119       O  0.77302642  0.41881251  0.34409431    -0.78500
O1120       O  0.71568463  0.44214863  0.39397550    -0.78600
Co1121     Co  0.80508059  0.35977517  0.37823342     1.51500
Co1122     Co  0.69792683  0.36581221  0.37369522     1.51700
Co1123     Co  0.75089803  0.40758485  0.40497096     1.51600
Co1124     Co  0.74155183  0.37527258  0.35156932     1.51500
O1125       O  0.75383038  0.38099188  0.37874396    -1.40500
C1126       C  0.80724017  0.41790708  0.34587632     1.11100
C1127       C  0.68365321  0.43220830  0.39675735     1.11100
C1128       C  0.82069948  0.43362014  0.39746635     1.11100
C1129       C  0.70450889  0.43180941  0.34462937     1.11100
O1130       O  0.82359563  0.14546953  0.60490318    -0.78600
O1131       O  0.68445080  0.14529920  0.64438909    -0.78600
O1132       O  0.70468379  0.17060703  0.60166890    -0.78600
O1133       O  0.76085400  0.17374826  0.64637330    -0.78500
O1134       O  0.66641624  0.12517410  0.60804724    -0.78700
O1135       O  0.81349238  0.14666702  0.64420063    -0.78600
O1136       O  0.71461586  0.13897364  0.67200977    -0.78600
O1137       O  0.77725277  0.18076754  0.59875108    -0.78600
C1138       C  0.81067400  0.17574346  0.59873133     1.11100
C1139       C  0.68928867  0.15342278  0.66255224     1.11000
C1140       C  0.67295475  0.15767042  0.60149460     1.11100
C1141       C  0.79452970  0.17438619  0.64901310     1.11000
O1142       O  0.79252053  0.06605247  0.64248316    -0.78600
O1143       O  0.70558252  0.05851869  0.60882889    -0.78600
O1144       O  0.78345051  0.10940600  0.58004165    -0.78600
O1145       O  0.71192459  0.07228854  0.65373285    -0.78600
O1146       O  0.65918970  0.07369559  0.63883244    -0.78600
O1147       O  0.79980934  0.06935485  0.60294733    -0.78600
O1148       O  0.77517089  0.10413163  0.66469638    -0.78500
O1149       O  0.71002618  0.09772637  0.58364733    -0.78600
Co1150     Co  0.80370232  0.10672523  0.62366166     1.51500
Co1151     Co  0.69937919  0.09998424  0.62712371     1.51700
Co1152     Co  0.74397270  0.13884471  0.59283872     1.51600
Co1153     Co  0.73604735  0.12488781  0.64821325     1.51500
O1154       O  0.75016281  0.11756894  0.62028614    -1.40500
C1155       C  0.78841114  0.07359371  0.66017071     1.11100
C1156       C  0.69999944  0.06634976  0.59095838     1.11100
C1157       C  0.80021148  0.08042207  0.58537692     1.11100
C1158       C  0.67933169  0.05953990  0.65180620     1.11100
N1159       N  0.68211346  0.50975655  0.99242468    -0.35000
N1160       N  0.74025878  0.51051061  0.96410297    -0.55600
N1161       N  0.79139271  0.49982089  0.99564218    -0.35000
N1162       N  0.73345015  0.49704435  0.02355406    -0.55600
C1163       C  0.66351407  0.50877835  0.97541072     0.28500
C1164       C  0.65985762  0.49645892  0.00666757     0.28600
C1165       C  0.81198096  0.49175209  0.98004371     0.28500
C1166       C  0.80866841  0.48725365  0.01176443     0.28500
C1167       C  0.71385249  0.52421583  0.95267936     0.37200
C1168       C  0.77132150  0.51530361  0.95405066     0.37200
C1169       C  0.70332130  0.50039985  0.03423025     0.37200
C1170       C  0.76131823  0.49936770  0.03616677     0.37200
C1171       C  0.62881738  0.49535459  0.97888290    -0.20300
C1172       C  0.62660849  0.48722673  0.99859889    -0.20300
C1173       C  0.84275163  0.47404377  0.98635570    -0.20300
C1174       C  0.84068072  0.47125374  0.00638860    -0.20300
C1175       C  0.72817372  0.53755283  0.93519456    -0.21400
C1176       C  0.76459820  0.53172427  0.93602964    -0.21400
C1177       C  0.71202761  0.50505869  0.05377689    -0.21400
C1178       C  0.74889544  0.50465126  0.05499000    -0.21400
C1179       C  0.67678568  0.52157313  0.95712801    -0.16700
C1180       C  0.66830465  0.49471776  0.02683185    -0.16700
C1181       C  0.79709041  0.49182792  0.03119619    -0.16700
C1182       C  0.80515879  0.50293727  0.96055478    -0.16700
H1183       H  0.60738436  0.49167673  0.96829864     0.16200
H1184       H  0.60301687  0.47638938  0.00616882     0.16200
H1185       H  0.86473003  0.46465237  0.97748169     0.16200
H1186       H  0.86063879  0.45912352  0.01591464     0.16200
H1187       H  0.71379522  0.04944203  0.92294026     0.14500
H1188       H  0.78386923  0.03850579  0.92463236     0.14500
H1189       H  0.69370057  0.50752172  0.06592628     0.14500
H1190       H  0.76463701  0.50646928  0.06828477     0.14500
H1191       H  0.70695258  0.52247972  0.99437217     0.27700
H1192       H  0.76944006  0.51680661  0.99554790     0.27700
N1193       N  0.77362215  0.23987841  0.00025484    -0.35000
N1194       N  0.72041420  0.26085423  0.02880994    -0.55600
N1195       N  0.66395288  0.24950041  0.99947963    -0.35000
N1196       N  0.71716876  0.23141102  0.97053197    -0.55600
C1197       C  0.79543750  0.25523863  0.01407023     0.28500
C1198       C  0.79338609  0.23636571  0.98380863     0.28600
C1199       C  0.64505355  0.26464837  0.01413137     0.28500
C1200       C  0.64410724  0.25279489  0.98290977     0.28500
C1201       C  0.74990910  0.26079111  0.04051326     0.37200
C1202       C  0.69126575  0.26159580  0.04062369     0.37200
C1203       C  0.74460024  0.21579601  0.96094803     0.37200
C1204       C  0.68701247  0.22433772  0.95996839     0.37200
C1205       C  0.82954563  0.26118085  0.00628049    -0.20300
C1206       C  0.82828810  0.24915312  0.98726549    -0.20300
C1207       C  0.61272056  0.27752647  0.00682158    -0.20300
C1208       C  0.61221166  0.27023522  0.98713831    -0.20300
C1209       C  0.73943891  0.26193425  0.05990445    -0.21400
C1210       C  0.70233565  0.26218702  0.05998325    -0.21400
C1211       C  0.73180920  0.19869368  0.94414948    -0.21400
C1212       C  0.69532080  0.20427595  0.94348530    -0.21400
C1213       C  0.78604035  0.26203962  0.03379268    -0.16700
C1214       C  0.78129196  0.22014146  0.96612089    -0.16700
C1215       C  0.65264450  0.23785185  0.96448298    -0.16700
C1216       C  0.65518183  0.26506001  0.03409683    -0.16700
H1217       H  0.85309188  0.27262852  0.01358486     0.16200
H1218       H  0.85060771  0.24972315  0.97714120     0.16200
H1219       H  0.59153354  0.29064014  0.01485775     0.16200
H1220       H  0.59045218  0.27641990  0.97716480     0.16200
H1221       H  0.75672959  0.26273145  0.07264663     0.14500
H1222       H  0.68548427  0.26358308  0.07280715     0.14500
H1223       H  0.74727008  0.18447238  0.93327103     0.14500
H1224       H  0.67707625  0.19494940  0.93210817     0.14500
H1225       H  0.74796211  0.22866759  0.00242675     0.27700
H1226       H  0.68685606  0.23386972  0.00128320     0.27700
O1227       O  0.51890279  0.08435372  0.91336296    -0.78600
O1228       O  0.54136054  0.14022519  0.86282521    -0.78600
O1229       O  0.50350991  0.03123443  0.85946320    -0.78600
O1230       O  0.48940163  0.20462896  0.89849486    -0.78500
O1231       O  0.52515290  0.07651615  0.83956152    -0.78700
O1232       O  0.52038780  0.15852200  0.91059365    -0.78600
O1233       O  0.50985753  0.19156191  0.86086334    -0.78600
O1234       O  0.53558567  0.08070747  0.88306422    -0.78600
C1235       C  0.54275735  0.07796119  0.90096263     1.11100
C1236       C  0.53902710  0.17452160  0.85835555     1.11000
C1237       C  0.52219073  0.04181397  0.84440651     1.11100
C1238       C  0.51645862  0.19263846  0.90784282     1.11000
O1239       O  0.94322781  0.15981718  0.91773734    -0.78600
O1240       O  0.95507410  0.08332576  0.84302944    -0.78600
O1241       O  0.97077780  0.04113081  0.89842902    -0.78600
O1242       O  0.93820561  0.16462082  0.85145859    -0.78600
O1243       O  0.98525932  0.14585366  0.83552309    -0.78600
O1244       O  0.94212894  0.08443409  0.91435083    -0.78600
O1245       O  0.91782640  0.17507302  0.88957999    -0.78500
O1246       O  0.93420525  0.05868888  0.86853896    -0.78600
Co1247     Co  0.98070684  0.12219265  0.91180006     1.51500
Co1248     Co  0.99786763  0.10898364  0.85662857     1.51700
Co1249     Co  0.98459030  0.07289509  0.87488429     1.51600
Co1250     Co  0.96386388  0.18029636  0.87542710     1.51500
O1251       O  0.97246511  0.12538176  0.88211913    -1.40500
C1252       C  0.91654428  0.17123461  0.90793623     1.11100
C1253       C  0.93173899  0.06227111  0.85066128     1.11100
C1254       C  0.94596577  0.05075196  0.91004603     1.11100
C1255       C  0.95619162  0.16359219  0.83587459     1.11100
N1256       N  0.60283032  0.35316089  0.78148030    -0.35000
N1257       N  0.61419609  0.29630869  0.75339253    -0.55600
N1258       N  0.63125959  0.35477570  0.72336776    -0.35000
N1259       N  0.61612962  0.41148265  0.75096112    -0.55600
C1260       C  0.59194725  0.32281835  0.79208805     0.28500
C1261       C  0.58958910  0.38334838  0.79028684     0.28600
C1262       C  0.62886729  0.32410855  0.71212725     0.28500
C1263       C  0.63192208  0.38498453  0.71121652     0.28500
C1264       C  0.61189534  0.27402930  0.76950358     0.37200
C1265       C  0.62462200  0.27467673  0.73852740     0.37200
C1266       C  0.61105090  0.43317511  0.76663074     0.37200
C1267       C  0.62830104  0.43414805  0.73633892     0.37200
C1268       C  0.57208498  0.33392653  0.80799065    -0.20300
C1269       C  0.57041643  0.37202339  0.80681730    -0.20300
C1270       C  0.62854837  0.33495936  0.69258129    -0.20300
C1271       C  0.63055092  0.37324991  0.69202067    -0.20300
C1272       C  0.62023823  0.23792454  0.76477985    -0.21400
C1273       C  0.62822459  0.23828198  0.74518750    -0.21400
C1274       C  0.61974326  0.46995418  0.76189631    -0.21400
C1275       C  0.63077050  0.47053848  0.74274420    -0.21400
C1276       C  0.60028013  0.28547702  0.78811286    -0.16700
C1277       C  0.59594781  0.42094720  0.78460457    -0.16700
C1278       C  0.63457733  0.42278148  0.71693574    -0.16700
C1279       C  0.62929232  0.28659793  0.71884685    -0.16700
H1280       H  0.55985009  0.31640666  0.81922089     0.16200
H1281       H  0.55684708  0.38940754  0.81713586     0.16200
H1282       H  0.62725769  0.31710938  0.67996592     0.16200
H1283       H  0.63085565  0.39047010  0.67894100     0.16200
H1284       H  0.62013922  0.21377336  0.77437650     0.14500
H1285       H  0.63565733  0.21434582  0.73678682     0.14500
H1286       H  0.61779902  0.99397763  0.77119134     0.14500
H1287       H  0.63889537  0.99505302  0.73439263     0.14500
H1288       H  0.62133253  0.35375589  0.77019929     0.27700
H1289       H  0.63602734  0.35465147  0.73826816     0.27700
N1290       N  0.83632768  0.37060390  0.72377104    -0.35000
N1291       N  0.86891672  0.31241529  0.74618158    -0.55600
N1292       N  0.88091157  0.36446379  0.77906103    -0.35000
N1293       N  0.85131525  0.42326011  0.75591592    -0.55600
C1294       C  0.83815649  0.34410069  0.70989321     0.28500
C1295       C  0.83156762  0.40350646  0.71448573     0.28600
C1296       C  0.90101384  0.33540845  0.78486698     0.28500
C1297       C  0.89027432  0.39407967  0.79031603     0.28500
C1298       C  0.85546039  0.29144987  0.73141901     0.37200
C1299       C  0.88021934  0.28843215  0.76011350     0.37200
C1300       C  0.83284984  0.44534482  0.74357063     0.37200
C1301       C  0.85434547  0.44172032  0.77298496     0.37200
C1302       C  0.83355324  0.36020964  0.69159872    -0.20300
C1303       C  0.82959476  0.39770455  0.69446882    -0.20300
C1304       C  0.92309880  0.34651515  0.80022965    -0.20300
C1305       C  0.91630108  0.38345970  0.80366484    -0.20300
C1306       C  0.85854799  0.25400218  0.73590519    -0.21400
C1307       C  0.87424046  0.25206094  0.75404356    -0.21400
C1308       C  0.82406071  0.47802096  0.75283370    -0.21400
C1309       C  0.83756439  0.47566942  0.77147500    -0.21400
C1310       C  0.84287546  0.30567870  0.71338949    -0.16700
C1311       C  0.82698945  0.43825659  0.72355678    -0.16700
C1312       C  0.87509838  0.42998408  0.78915819    -0.16700
C1313       C  0.89820440  0.29861040  0.77757829    -0.16700
H1314       H  0.83328995  0.34643699  0.67762326     0.16200
H1315       H  0.82540522  0.41829263  0.68307249     0.16200
H1316       H  0.94199754  0.32966262  0.80824890     0.16200
H1317       H  0.92905257  0.40052111  0.81474263     0.16200
H1318       H  0.85080977  0.23053289  0.72693638     0.14500
H1319       H  0.88088604  0.22667973  0.76176772     0.14500
H1320       H  0.81000295  0.00146144  0.74666199     0.14500
H1321       H  0.83602401  0.99696987  0.78245882     0.14500
H1322       H  0.83480662  0.36615290  0.73874174     0.27700
H1323       H  0.85940464  0.36279167  0.76940770     0.27700
N1324       N  0.61181348  0.12495740  0.21543225    -0.35000
N1325       N  0.63143969  0.18294836  0.24227815    -0.55600
N1326       N  0.64674608  0.12667825  0.27245734    -0.35000
N1327       N  0.62925956  0.06841642  0.24514631    -0.55600
C1328       C  0.61311048  0.15484537  0.20312049     0.28500
C1329       C  0.61322131  0.09405688  0.20437277     0.28600
C1330       C  0.66223295  0.15739957  0.28039378     0.28500
C1331       C  0.65928389  0.09678367  0.28235837     0.28500
C1332       C  0.61693865  0.20430368  0.22803231     0.37200
C1333       C  0.63661175  0.20512596  0.25785056     0.37200
C1334       C  0.61476045  0.04625913  0.23119826     0.37200
C1335       C  0.63193167  0.04735365  0.26161930     0.37200
C1336       C  0.61498332  0.14277073  0.18401934    -0.20300
C1337       C  0.61510834  0.10447982  0.18479811    -0.20300
C1338       C  0.68464324  0.14694686  0.29566127    -0.20300
C1339       C  0.68269016  0.10870613  0.29693799    -0.20300
C1340       C  0.61277984  0.24026468  0.23460286    -0.21400
C1341       C  0.62530384  0.24081093  0.25350182    -0.21400
C1342       C  0.60827557  0.01083706  0.23885052    -0.21400
C1343       C  0.61911262  0.01154644  0.25811250    -0.21400
C1344       C  0.61098657  0.19256504  0.20866124    -0.16700
C1345       C  0.61016486  0.05679651  0.21132451    -0.16700
C1346       C  0.64875688  0.05926749  0.27913640    -0.16700
C1347       C  0.65470296  0.19457443  0.27512499    -0.16700
H1348       H  0.61596381  0.15976586  0.17086503     0.16200
H1349       H  0.61607589  0.08635731  0.17230922     0.16200
H1350       H  0.70043618  0.16501044  0.30507559     0.16200
H1351       H  0.69682302  0.09165702  0.30744800     0.16200
H1352       H  0.60265894  0.26383959  0.22647751     0.14500
H1353       H  0.62668335  0.26492115  0.26281952     0.14500
H1354       H  0.59753089  0.48679583  0.23123172     0.14500
H1355       H  0.61842313  0.48817035  0.26822438     0.14500
H1356       H  0.60615230  0.12537833  0.23027498     0.27700
H1357       H  0.62583800  0.12643105  0.26236421     0.27700
N1358       N  0.86626333  0.12145682  0.28199637    -0.35000
N1359       N  0.88914972  0.17822998  0.25476002    -0.55600
N1360       N  0.91092857  0.12026181  0.22753862    -0.35000
N1361       N  0.89174431  0.06380315  0.25558654    -0.55600
C1362       C  0.86159528  0.15213986  0.29292280     0.28500
C1363       C  0.86739026  0.09190163  0.29437573     0.28600
C1364       C  0.92675003  0.15046221  0.21910329     0.28500
C1365       C  0.92315766  0.09007083  0.21829333     0.28500
C1366       C  0.87054245  0.20001223  0.26690694     0.37200
C1367       C  0.89806696  0.19954373  0.23909916     0.37200
C1368       C  0.87725339  0.04212639  0.26986352     0.37200
C1369       C  0.89590264  0.04165051  0.23997496     0.37200
C1370       C  0.85904842  0.14190584  0.31245286    -0.20300
C1371       C  0.86292568  0.10393268  0.31339120    -0.20300
C1372       C  0.94929749  0.13930468  0.20419805    -0.20300
C1373       C  0.94679731  0.10110668  0.20361050    -0.20300
C1374       C  0.86804081  0.23557088  0.25904873    -0.21400
C1375       C  0.88563406  0.23533416  0.24144487    -0.21400
C1376       C  0.87298728  0.00580476  0.26344737    -0.21400
C1377       C  0.88458355  0.00557085  0.24444963    -0.21400
C1378       C  0.85837293  0.18886876  0.28562546    -0.16700
C1379       C  0.86938725  0.05418538  0.28887887    -0.16700
C1380       C  0.91184342  0.05311257  0.22218815    -0.16700
C1381       C  0.91855872  0.18769437  0.22312295    -0.16700
H1382       H  0.85491183  0.15992614  0.32475885     0.16200
H1383       H  0.86193673  0.08702161  0.32657469     0.16200
H1384       H  0.96518111  0.15689176  0.19441250     0.16200
H1385       H  0.96061072  0.08350461  0.19349008     0.16200
H1386       H  0.85545574  0.25934107  0.26547544     0.14500
H1387       H  0.88899819  0.25886469  0.23155014     0.14500
H1388       H  0.86251038  0.48193887  0.27156994     0.14500
H1389       H  0.88513066  0.48147995  0.23511247     0.14500
H1390       H  0.86445432  0.12019670  0.26691314     0.27700
H1391       H  0.88950113  0.12051778  0.23715008     0.27700
O1392       O  0.92537293  0.32650038  0.10674237    -0.78600
O1393       O  0.57529800  0.34278186  0.13121384    -0.78600
O1394       O  0.01184210  0.35158579  0.08061760    -0.78600
O1395       O  0.98488775  0.32349618  0.15286215    -0.78500
O1396       O  0.51970201  0.32039958  0.10812831    -0.78700
O1397       O  0.92845237  0.33285004  0.14673141    -0.78600
O1398       O  0.53645377  0.34153782  0.15549884    -0.78600
O1399       O  0.93820989  0.35994755  0.08048687    -0.78600
C1400       C  0.92203487  0.33232152  0.08863225     1.11100
C1401       C  0.56573381  0.33056963  0.14790704     1.11000
C1402       C  0.52278005  0.32295982  0.08975595     1.11100
C1403       C  0.95285171  0.31412529  0.15466338     1.11000
O1404       O  0.92253688  0.41317766  0.14206531    -0.78600
O1405       O  0.56019112  0.38733655  0.09879831    -0.78600
O1406       O  0.94900273  0.43651074  0.09257426    -0.78600
O1407       O  0.52287977  0.41285816  0.16044243    -0.78600
O1408       O  0.55184862  0.41591065  0.13339486    -0.78600
O1409       O  0.90408547  0.40241352  0.10407422    -0.78600
O1410       O  0.95875549  0.39327792  0.16512900    -0.78500
O1411       O  0.02099133  0.42950588  0.09153198    -0.78600
Co1412     Co  0.92615466  0.36966977  0.12439138     1.51500
Co1413     Co  0.53231870  0.36682220  0.12184774     1.51700
Co1414     Co  0.98029369  0.39385702  0.08849312     1.51600
Co1415     Co  0.99521548  0.37471872  0.14698499     1.51500
O1416       O  0.98082654  0.38342186  0.11825732    -1.40500
C1417       C  0.93543842  0.41566430  0.15912686     1.11100
C1418       C  0.55248274  0.41778866  0.09052675     1.11100
C1419       C  0.91582139  0.43071033  0.09485092     1.11100
C1420       C  0.54700181  0.42792466  0.15048405     1.11100
C1421       C  0.92561339  0.44574733  0.17143265    -0.16900
C1422       C  0.92153032  0.47167348  0.18212751     0.07100
C1423       C  0.91923472  0.00131040  0.19535417     0.09000
C1424       C  0.91696419  0.02547619  0.20730213    -0.17800
C1425       C  0.92984012  0.21522877  0.20901177    -0.16900
C1426       C  0.93625318  0.23703721  0.19613090     0.07100
C1427       C  0.94060943  0.26196266  0.18055541     0.09000
C1428       C  0.94435721  0.28453269  0.16775196    -0.17800
C1429       C  0.60206119  0.02800951  0.19700872    -0.16900
C1430       C  0.59406092  0.00577397  0.18445329     0.07100
C1431       C  0.58208271  0.48032137  0.16992532     0.09000
C1432       C  0.56835689  0.45759333  0.15909924    -0.17800
C1433       C  0.58476845  0.30163946  0.15817578    -0.16900
C1434       C  0.59347347  0.27559287  0.16844750     0.07100
C1435       C  0.59979629  0.24552287  0.18167405     0.09000
C1436       C  0.60459201  0.22089645  0.19362283    -0.17800
C1437       C  0.53987149  0.01508322  0.83286431    -0.16900
C1438       C  0.55511472  0.99419209  0.82234009     0.07100
C1439       C  0.57193259  0.47035781  0.80931031     0.09000
C1440       C  0.58426087  0.44891958  0.79795696    -0.17800
C1441       C  0.56588500  0.19334289  0.84628907    -0.16900
C1442       C  0.57971470  0.21227026  0.83340011     0.07100
C1443       C  0.58943335  0.23613003  0.81732849     0.09000
C1444       C  0.59497575  0.25764099  0.80375354    -0.17800
C1445       C  0.88297048  0.45733278  0.80444625    -0.16900
C1446       C  0.88905445  0.48233968  0.81592930     0.07100
C1447       C  0.89777321  0.01272565  0.82854768     0.09000
C1448       C  0.90928199  0.03758324  0.83892666    -0.17800
C1449       C  0.94601016  0.18698128  0.81977376    -0.16900
C1450       C  0.93724300  0.21139420  0.80864332     0.07100
C1451       C  0.92594902  0.24245649  0.79761509     0.09000
C1452       C  0.91456289  0.26889183  0.78874244    -0.17800
C1453       C  0.54645662  0.29856913  0.07955585    -0.16900
C1454       C  0.57091846  0.28580727  0.07028597     0.07100
C1455       C  0.60130926  0.27654208  0.05887796     0.09000
C1456       C  0.62676739  0.27096371  0.04834773    -0.17800
C1457       C  0.89565342  0.31050925  0.07756944    -0.16900
C1458       C  0.87087948  0.29605285  0.06849271     0.07100
C1459       C  0.84061551  0.28217413  0.05753261     0.09000
C1460       C  0.81515089  0.27222560  0.04744933    -0.17800
C1461       C  0.62432233  0.23613259  0.94966502    -0.16900
C1462       C  0.59927103  0.23400236  0.93831653     0.07100
C1463       C  0.56878485  0.22811548  0.92604265     0.09000
C1464       C  0.54314653  0.21692935  0.91665609    -0.17800
C1465       C  0.80821982  0.20911163  0.95210501    -0.16900
C1466       C  0.83132573  0.20025491  0.94080773     0.07100
C1467       C  0.85953004  0.19022391  0.92821203     0.09000
C1468       C  0.88480862  0.18171339  0.91830487    -0.17800
C1469       C  0.57836554  0.43786364  0.07873092    -0.16900
C1470       C  0.59794159  0.45402262  0.06728965     0.07100
C1471       C  0.62023130  0.47108580  0.05294848     0.09000
C1472       C  0.64060775  0.48340590  0.04067909    -0.17800
C1473       C  0.82249266  0.48542024  0.04685810    -0.16900
C1474       C  0.84363044  0.47832486  0.05965176     0.07100
C1475       C  0.86884404  0.46692219  0.07377024     0.09000
C1476       C  0.89070176  0.45322779  0.08449753    -0.17800
C1477       C  0.57694689  0.06525613  0.90787716    -0.16900
C1478       C  0.60251933  0.05424056  0.91699938     0.07100
C1479       C  0.62942695  0.04164423  0.93000060     0.09000
C1480       C  0.65106015  0.53174143  0.94208467    -0.17800
C1481       C  0.83503337  0.50273229  0.94689827    -0.16900
C1482       C  0.86171286  0.00457819  0.93684466     0.07100
C1483       C  0.89390224  0.01154233  0.92627279     0.09000
C1484       C  0.92021586  0.02448547  0.91814483    -0.17800
C1485       C  0.66677330  0.02876836  0.66420987    -0.16900
C1486       C  0.65820933  0.00391087  0.67563826     0.07100
C1487       C  0.64943408  0.47537835  0.68971624     0.09000
C1488       C  0.64251296  0.45142780  0.70196461    -0.17800
C1489       C  0.66842689  0.18127193  0.67173650    -0.16900
C1490       C  0.65491106  0.20556217  0.68098028     0.07100
C1491       C  0.64310815  0.23412878  0.69318287     0.09000
C1492       C  0.63569681  0.25819460  0.70449448    -0.17800
C1493       C  0.81741936  0.46932359  0.71121781    -0.16900
C1494       C  0.81088433  0.49482417  0.70038808     0.07100
C1495       C  0.80383411  0.02360231  0.68698813     0.09000
C1496       C  0.79736339  0.04710724  0.67496813    -0.17800
C1497       C  0.81035751  0.20493085  0.65988647    -0.16900
C1498       C  0.82017109  0.22952596  0.67079235     0.07100
C1499       C  0.82914019  0.25713716  0.68484822     0.09000
C1500       C  0.83566163  0.27966457  0.69751366    -0.17800
C1501       C  0.65742903  0.03167160  0.29419006    -0.16900
C1502       C  0.66589963  0.00967084  0.30688728     0.07100
C1503       C  0.67731076  0.48390338  0.32147772     0.09000
C1504       C  0.68858506  0.46105088  0.33300755    -0.17800
C1505       C  0.69726509  0.30366231  0.32075109    -0.16900
C1506       C  0.68844691  0.27845568  0.31025745     0.07100
C1507       C  0.67734566  0.24883920  0.29825423     0.09000
C1508       C  0.66722123  0.22385257  0.28792300    -0.17800
C1509       C  0.82835756  0.44582719  0.33585885    -0.16900
C1510       C  0.84215553  0.47089310  0.32657571     0.07100
C1511       C  0.85419008  0.00081693  0.31469257     0.09000
C1512       C  0.86192445  0.02579318  0.30352301    -0.17800
C1513       C  0.80472834  0.29070677  0.33183701    -0.16900
C1514       C  0.81652456  0.26717455  0.32127473     0.07100
C1515       C  0.83097774  0.23994566  0.30888271     0.09000
C1516       C  0.84351646  0.21679218  0.29834741    -0.17800
C1517       C  0.64542459  0.17887263  0.59214968    -0.16900
C1518       C  0.62535127  0.19699592  0.58220520     0.07100
C1519       C  0.60389284  0.21749370  0.56907876     0.09000
C1520       C  0.58538298  0.23357894  0.55736515    -0.17800
C1521       C  0.90313624  0.25109444  0.55603168    -0.16900
C1522       C  0.88042625  0.23923418  0.56720357     0.07100
C1523       C  0.85502311  0.22153682  0.57977288     0.09000
C1524       C  0.83424414  0.20278107  0.58944043    -0.17800
C1525       C  0.67598223  0.32125903  0.42586206    -0.16900
C1526       C  0.65225211  0.31158689  0.43713535     0.07100
C1527       C  0.62289245  0.30432505  0.45015542     0.09000
C1528       C  0.59784397  0.29955093  0.46136959    -0.17800
C1529       C  0.91045990  0.31037631  0.45989088    -0.16900
C1530       C  0.88396739  0.31613078  0.45015787     0.07100
C1531       C  0.85141589  0.32266470  0.44006082     0.09000
C1532       C  0.82490930  0.33049300  0.43079744    -0.17800
C1533       C  0.59377384  0.01764337  0.54790688    -0.16900
C1534       C  0.61948375  0.02257981  0.55859497     0.07100
C1535       C  0.65044998  0.03127034  0.57008458     0.09000
C1536       C  0.67547257  0.04341515  0.57965555    -0.17800
C1537       C  0.82466992  0.06320678  0.57201543    -0.16900
C1538       C  0.84917900  0.05176991  0.56228349     0.07100
C1539       C  0.87990009  0.04083838  0.55160199     0.09000
C1540       C  0.90598071  0.03279558  0.54206073    -0.17800
C1541       C  0.59809152  0.48458703  0.44905599    -0.16900
C1542       C  0.61906754  0.47765392  0.43627420     0.07100
C1543       C  0.64174483  0.46704299  0.42091314     0.09000
C1544       C  0.66075316  0.45404312  0.40863877    -0.17800
C1545       C  0.84695229  0.45818195  0.40622834    -0.16900
C1546       C  0.86861079  0.47398186  0.41655351     0.07100
C1547       C  0.89337525  0.48730372  0.43068255     0.09000
C1548       C  0.91452119  0.49507615  0.44349775    -0.17800
N1549       N  0.94824159  0.01327274  0.49417822    -0.35000
N1550       N  0.50502371  0.99878482  0.46643393    -0.55600
N1551       N  0.55782967  0.50412961  0.49772965    -0.35000
N1552       N  0.50078038  0.51577936  0.52602769    -0.55600
C1553       C  0.92844412  0.00244425  0.47850144     0.28500
C1554       C  0.92612866  0.51252373  0.50985836     0.28600
C1555       C  0.57836358  0.99069341  0.48322617     0.28500
C1556       C  0.57625794  0.49994346  0.51465888     0.28500
C1557       C  0.97740481  0.00244237  0.45374745     0.37200
C1558       C  0.53527613  0.99831744  0.45558682     0.37200
C1559       C  0.97151629  0.52755135  0.53574006     0.37200
C1560       C  0.52975104  0.52259751  0.53762629     0.37200
C1561       C  0.89325781  0.99499794  0.48427704    -0.20300
C1562       C  0.89176519  0.50145290  0.50402280    -0.20300
C1563       C  0.61030536  0.97787967  0.49102077    -0.20300
C1564       C  0.60900717  0.48374637  0.51083830    -0.20300
C1565       C  0.99011894  0.00401030  0.43473078    -0.21400
C1566       C  0.52679896  0.00143483  0.43589140    -0.21400
C1567       C  0.98189460  0.54134198  0.55377987    -0.21400
C1568       C  0.51873843  0.53822371  0.55496942    -0.21400
C1569       C  0.94076040  0.00102120  0.45898168    -0.19500
C1570       C  0.93547190  0.52404663  0.52896367    -0.16700
C1571       C  0.56563457  0.51308432  0.53313986    -0.16700
C1572       C  0.57000125  0.99189302  0.46305744    -0.16700
H1573       H  0.87083453  0.98624724  0.47517485     0.16200
H1574       H  0.86796208  0.49857242  0.51303043     0.16200
H1575       H  0.63247917  0.96602040  0.48320987     0.16200
H1576       H  0.63003973  0.47726778  0.52121510     0.16200
H1577       H  0.97454662  0.00609555  0.42139441     0.14500
H1578       H  0.54503484  0.00113734  0.42360191     0.14500
H1579       H  0.96469450  0.55224664  0.56497310     0.14500
H1580       H  0.53545797  0.54627401  0.56725191     0.14500
H1581       H  0.97417877  0.02467455  0.49382654     0.27700
H1582       H  0.53471332  0.51949466  0.49587698     0.27700
N1583       N  0.55538821  0.77569716  0.50977753    -0.35000
N1584       N  0.00284836  0.79486223  0.48003389    -0.55600
N1585       N  0.94484623  0.78363606  0.50890125    -0.35000
N1586       N  0.99695165  0.76154368  0.53789992    -0.55600
C1587       C  0.57694821  0.77738073  0.49381973     0.28500
C1588       C  0.57349325  0.75787569  0.52418286     0.28600
C1589       C  0.92555149  0.78629266  0.49220002     0.28500
C1590       C  0.92256861  0.76905329  0.52279833     0.28500
C1591       C  0.53317963  0.80397573  0.46993862     0.37200
C1592       C  0.97476188  0.80749861  0.46942220     0.37200
C1593       C  0.52533010  0.75558352  0.54977205     0.37200
C1594       C  0.96745570  0.76090325  0.54941379     0.37200
C1595       C  0.60955863  0.76133349  0.49835512    -0.20300
C1596       C  0.60734123  0.74895427  0.51742861    -0.20300
C1597       C  0.89042615  0.77387423  0.49565531    -0.20300
C1598       C  0.88857437  0.76304769  0.51492464    -0.20300
C1599       C  0.52423025  0.82226663  0.45270999    -0.21400
C1600       C  0.98728224  0.82449977  0.45238856    -0.21400
C1601       C  0.51377171  0.75121508  0.56894575    -0.21400
C1602       C  0.97713624  0.75466713  0.56871848    -0.21400
C1603       C  0.56853084  0.79387645  0.47545937    -0.16700
C1604       C  0.56094472  0.75037151  0.54342909    -0.16700
C1605       C  0.93172843  0.76182311  0.54250811    -0.16700
C1606       C  0.93797028  0.80149425  0.47421301    -0.16700
H1607       H  0.63257830  0.75861010  0.48887996     0.16200
H1608       H  0.62839208  0.73503699  0.52542381     0.16200
H1609       H  0.86826813  0.77272114  0.48537754     0.16200
H1610       H  0.86485280  0.75194543  0.52227552     0.16200
H1611       H  0.54237912  0.83250872  0.44143194     0.14500
H1612       H  0.97141883  0.83674703  0.44080356     0.14500
H1613       H  0.52994817  0.74528134  0.58172999     0.14500
H1614       H  0.95954988  0.75177015  0.58124539     0.14500
H1615       H  0.53097718  0.78881542  0.51130320     0.27700
H1616       H  0.97059308  0.79472712  0.51110163     0.27700
O1617       O  0.79372228  0.82910449  0.40139727    -0.78600
O1618       O  0.70689331  0.82693968  0.35240332    -0.78600
O1619       O  0.71371950  0.87165945  0.41704348    -0.78600
O1620       O  0.78088604  0.84963235  0.33722023    -0.78500
O1621       O  0.70275699  0.82810857  0.39479779    -0.78700
O1622       O  0.79089781  0.81551086  0.36250422    -0.78600
O1623       O  0.71936572  0.86388234  0.32697694    -0.78600
O1624       O  0.78680979  0.87731288  0.42020684    -0.78600
C1625       C  0.79868327  0.84499101  0.41747430     1.11100
C1626       C  0.70733277  0.83295312  0.33374611     1.11000
C1627       C  0.70022406  0.83999045  0.41218169     1.11100
C1628       C  0.79155860  0.81947431  0.34427903     1.11000
O1629       O  0.82265566  0.89214016  0.35552843    -0.78600
O1630       O  0.67376884  0.89972757  0.39232094    -0.78600
O1631       O  0.78846343  0.94347789  0.39620596    -0.78600
O1632       O  0.73821254  0.92770173  0.34437615    -0.78600
O1633       O  0.68516436  0.90683322  0.35334744    -0.78600
O1634       O  0.82936842  0.90041888  0.39395999    -0.78600
O1635       O  0.77303907  0.91880820  0.34409646    -0.78500
O1636       O  0.71569138  0.94215196  0.39397525    -0.78600
Co1637     Co  0.80509028  0.85977673  0.37823925     1.51500
Co1638     Co  0.69793674  0.86581244  0.37369577     1.51700
Co1639     Co  0.75090291  0.90758861  0.40497301     1.51600
Co1640     Co  0.74156711  0.87526709  0.35157132     1.51500
O1641       O  0.75383951  0.88099302  0.37874654    -1.40500
C1642       C  0.80725246  0.91790679  0.34588093     1.11100
C1643       C  0.68365963  0.93221156  0.39675598     1.11100
C1644       C  0.82070574  0.93362391  0.39747058     1.11100
C1645       C  0.70452188  0.93180389  0.34462650     1.11100
O1646       O  0.82359494  0.64546550  0.60490227    -0.78600
O1647       O  0.68445554  0.64530672  0.64439237    -0.78600
O1648       O  0.70468197  0.67060619  0.60166941    -0.78600
O1649       O  0.76086568  0.67375569  0.64637236    -0.78500
O1650       O  0.66641570  0.62517430  0.60805133    -0.78700
O1651       O  0.81350036  0.64666719  0.64419944    -0.78600
O1652       O  0.71462693  0.63899057  0.67201186    -0.78600
O1653       O  0.77725218  0.68076484  0.59875085    -0.78600
C1654       C  0.81067343  0.67574015  0.59873113     1.11100
C1655       C  0.68929668  0.65343511  0.66255474     1.11000
C1656       C  0.67295318  0.65766858  0.60149562     1.11100
C1657       C  0.79454178  0.67438976  0.64901099     1.11000
O1658       O  0.79252187  0.56605519  0.64248711    -0.78600
O1659       O  0.70558140  0.55851920  0.60883526    -0.78600
O1660       O  0.78344747  0.60940153  0.58004386    -0.78600
O1661       O  0.71192894  0.57230105  0.65373888    -0.78600
O1662       O  0.65919288  0.57370315  0.63883885    -0.78600
O1663       O  0.79980443  0.56935068  0.60294994    -0.78600
O1664       O  0.77517775  0.60414069  0.66469884    -0.78500
O1665       O  0.71002353  0.59772202  0.58365163    -0.78600
Co1666     Co  0.80370325  0.60672375  0.62366273     1.51500
Co1667     Co  0.69938112  0.59998871  0.62712827     1.51700
Co1668     Co  0.74397095  0.63884204  0.59284049     1.51600
Co1669     Co  0.73605430  0.62489788  0.64821572     1.51500
O1670       O  0.75016416  0.61757113  0.62028873    -1.40500
C1671       C  0.78841567  0.57360080  0.66017447     1.11100
C1672       C  0.69999672  0.56634689  0.59096446     1.11100
C1673       C  0.80020762  0.58041740  0.58537944     1.11100
C1674       C  0.67933700  0.55954956  0.65181219     1.11100
N1675       N  0.68211613  0.00974900  0.99241939    -0.35000
N1676       N  0.74026243  0.01050573  0.96409920    -0.55600
N1677       N  0.79139378  0.99981675  0.99563923    -0.35000
N1678       N  0.73345122  0.99704292  0.02354959    -0.55600
C1679       C  0.66351952  0.00876409  0.97540458     0.28500
C1680       C  0.65986231  0.99644300  0.00666127     0.28600
C1681       C  0.81198064  0.99174194  0.98004111     0.28500
C1682       C  0.80866690  0.98724750  0.01176193     0.28500
C1683       C  0.71385715  0.02421349  0.95267576     0.37200
C1684       C  0.77132621  0.01530085  0.95404812     0.37200
C1685       C  0.70332146  0.00040086  0.03422464     0.37200
C1686       C  0.76131846  0.99937378  0.03616246     0.37200
C1687       C  0.62882709  0.99532633  0.97887499    -0.20300
C1688       C  0.62661791  0.98719720  0.99859096    -0.20300
C1689       C  0.84274692  0.97402643  0.98635368    -0.20300
C1690       C  0.84067527  0.97123893  0.00638675    -0.20300
C1691       C  0.72818014  0.03755529  0.93519236    -0.21400
C1692       C  0.76460480  0.03172630  0.93602805    -0.21400
C1693       C  0.71202621  0.00507009  0.05377076    -0.21400
C1694       C  0.74889434  0.00466604  0.05498466    -0.21400
C1695       C  0.67678994  0.02156578  0.95712293    -0.16700
C1696       C  0.66830653  0.99470818  0.02682603    -0.16700
C1697       C  0.79709024  0.99182949  0.03119332    -0.16700
C1698       C  0.80516200  0.00293031  0.96055234    -0.16700
H1699       H  0.60739730  0.99163998  0.96828958     0.16200
H1700       H  0.60302898  0.97635030  0.00615981     0.16200
H1701       H  0.86472327  0.96462931  0.97747995     0.16200
H1702       H  0.86063046  0.95910522  0.01591333     0.16200
H1703       H  0.71378785  0.54943723  0.92294217     0.14500
H1704       H  0.78386144  0.53850161  0.92463304     0.14500
H1705       H  0.69369800  0.00753665  0.06591937     0.14500
H1706       H  0.76463518  0.00649066  0.06827944     0.14500
H1707       H  0.70695001  0.02248166  0.99436795     0.27700
H1708       H  0.76944574  0.01680767  0.99554439     0.27700
N1709       N  0.77361694  0.73986212  0.00025871    -0.35000
N1710       N  0.72040504  0.76084998  0.02880863    -0.55600
N1711       N  0.66394951  0.74949924  0.99947490    -0.35000
N1712       N  0.71716935  0.73139918  0.97053200    -0.55600
C1713       C  0.79543240  0.75521942  0.01407528     0.28500
C1714       C  0.79338555  0.73633964  0.98381467     0.28600
C1715       C  0.64504982  0.76465434  0.01412457     0.28500
C1716       C  0.64411031  0.75280095  0.98290300     0.28500
C1717       C  0.74989738  0.76079177  0.04051390     0.37200
C1718       C  0.69125426  0.76159919  0.04062032     0.37200
C1719       C  0.74460118  0.71578267  0.96094917     0.37200
C1720       C  0.68701545  0.72433474  0.95996493     0.37200
C1721       C  0.82954478  0.76114780  0.00628878    -0.20300
C1722       C  0.82829013  0.74911577  0.98727458    -0.20300
C1723       C  0.61272411  0.77754431  0.00681150    -0.20300
C1724       C  0.61221964  0.77025332  0.98712815    -0.20300
C1725       C  0.73942312  0.76194650  0.05990413    -0.21400
C1726       C  0.70232001  0.76220037  0.05998045    -0.21400
C1727       C  0.73181271  0.69868846  0.94414771    -0.21400
C1728       C  0.69532563  0.70427714  0.94348070    -0.21400
C1729       C  0.78603032  0.76203257  0.03379587    -0.16700
C1730       C  0.78129195  0.72011985  0.96612558    -0.16700
C1731       C  0.65264884  0.73785469  0.96447721    -0.16700
C1732       C  0.65517224  0.76506388  0.03409079    -0.16700
H1733       H  0.85309185  0.77258992  0.01359466     0.16200
H1734       H  0.85061325  0.74967669  0.97715264     0.16200
H1735       H  0.59153967  0.79066691  0.01484550     0.16200
H1736       H  0.59046646  0.77644707  0.97715219     0.16200
H1737       H  0.75671105  0.76275037  0.07264730     0.14500
H1738       H  0.68546612  0.76360516  0.07280299     0.14500
H1739       H  0.74727467  0.68446884  0.93326909     0.14500
H1740       H  0.67708347  0.69495852  0.93210071     0.14500
H1741       H  0.74795453  0.72866260  0.00242805     0.27700
H1742       H  0.68684470  0.73386116  0.00128091     0.27700
O1743       O  0.51890135  0.58435458  0.91336376    -0.78600
O1744       O  0.54136631  0.64022642  0.86282891    -0.78600
O1745       O  0.50352114  0.53123704  0.85946216    -0.78600
O1746       O  0.48940079  0.70462922  0.89849598    -0.78500
O1747       O  0.52516390  0.57652103  0.83956207    -0.78700
O1748       O  0.52038415  0.65852220  0.91059659    -0.78600
O1749       O  0.50986421  0.69156350  0.86086609    -0.78600
O1750       O  0.53558933  0.58071046  0.88306572    -0.78600
C1751       C  0.54275819  0.57796414  0.90096436     1.11100
C1752       C  0.53903429  0.67452316  0.85835997     1.11000
C1753       C  0.52220373  0.54181841  0.84440637     1.11100
C1754       C  0.51645740  0.69263849  0.90784388     1.11000
O1755       O  0.94323235  0.65982264  0.91773833    -0.78600
O1756       O  0.95506905  0.58331938  0.84303335    -0.78600
O1757       O  0.97077702  0.54113427  0.89843383    -0.78600
O1758       O  0.93819896  0.66461391  0.85146002    -0.78600
O1759       O  0.98525083  0.64584679  0.83552301    -0.78600
O1760       O  0.94213206  0.58443988  0.91435574    -0.78600
O1761       O  0.91782427  0.67506980  0.88958158    -0.78500
O1762       O  0.93420035  0.55868832  0.86854445    -0.78600
Co1763     Co  0.98071018  0.62219729  0.91180124     1.51500
Co1764     Co  0.99786311  0.60898042  0.85662981     1.51700
Co1765     Co  0.98458657  0.57289424  0.87488735     1.51600
Co1766     Co  0.96385947  0.68029456  0.87542686     1.51500
O1767       O  0.97246361  0.62538171  0.88212064    -1.40500
C1768       C  0.91654522  0.67123306  0.90793793     1.11100
C1769       C  0.93173408  0.56226659  0.85066657     1.11100
C1770       C  0.94596591  0.55075748  0.91005078     1.11100
C1771       C  0.95618329  0.66358574  0.83587545     1.11100
N1772       N  0.60283635  0.85316055  0.78148656    -0.35000
N1773       N  0.61420565  0.79631050  0.75339941    -0.55600
N1774       N  0.63126375  0.85477952  0.72337303    -0.35000
N1775       N  0.61613191  0.91148393  0.75096583    -0.55600
C1776       C  0.59195517  0.82281763  0.79209399     0.28500
C1777       C  0.58958984  0.88334666  0.79029109     0.28600
C1778       C  0.62887001  0.82411196  0.71213348     0.28500
C1779       C  0.63192255  0.88498794  0.71122187     0.28500
C1780       C  0.61190924  0.77403096  0.76951060     0.37200
C1781       C  0.62463292  0.77467997  0.73853405     0.37200
C1782       C  0.61105172  0.93317504  0.76663572     0.37200
C1783       C  0.62830221  0.93415083  0.73634392     0.37200
C1784       C  0.57208799  0.83392415  0.80799518    -0.20300
C1785       C  0.57041473  0.87202050  0.80682070    -0.20300
C1786       C  0.62854649  0.83496203  0.69258733    -0.20300
C1787       C  0.63054772  0.87325255  0.69202616    -0.20300
C1788       C  0.62025666  0.73792752  0.76478684    -0.21400
C1789       C  0.62824109  0.73828591  0.74519421    -0.21400
C1790       C  0.61974289  0.96995476  0.76190194    -0.21400
C1791       C  0.63077038  0.97054082  0.74274980    -0.21400
C1792       C  0.60029267  0.78547734  0.78811980    -0.16700
C1793       C  0.59594565  0.92094569  0.78460853    -0.16700
C1794       C  0.63457669  0.92278545  0.71694035    -0.16700
C1795       C  0.62929841  0.78660145  0.71885321    -0.16700
H1796       H  0.55985264  0.81640345  0.81922496     0.16200
H1797       H  0.55684079  0.88940363  0.81713796     0.16200
H1798       H  0.62725369  0.81711153  0.67997219     0.16200
H1799       H  0.63084888  0.89047222  0.67894629     0.16200
H1800       H  0.62016151  0.71377655  0.77438359     0.14500
H1801       H  0.63567608  0.71435078  0.73679335     0.14500
H1802       H  0.61780116  0.49397769  0.77118540     0.14500
H1803       H  0.63889697  0.49504985  0.73438677     0.14500
H1804       H  0.62134424  0.85375748  0.77020454     0.27700
H1805       H  0.63603560  0.85465554  0.73827601     0.27700
N1806       N  0.83632900  0.87059862  0.72376911    -0.35000
N1807       N  0.86892220  0.81241515  0.74618236    -0.55600
N1808       N  0.88089823  0.86446534  0.77906312    -0.35000
N1809       N  0.85129974  0.92325746  0.75591490    -0.55600
C1810       C  0.83816447  0.84409600  0.70989122     0.28500
C1811       C  0.83156243  0.90349981  0.71448340     0.28600
C1812       C  0.90100000  0.83541154  0.78487244     0.28500
C1813       C  0.89025460  0.89408279  0.79031875     0.28500
C1814       C  0.85547972  0.79144816  0.73141682     0.37200
C1815       C  0.88022806  0.78843329  0.76011414     0.37200
C1816       C  0.83283555  0.94533996  0.74356792     0.37200
C1817       C  0.85432755  0.94172035  0.77298325     0.37200
C1818       C  0.83355822  0.86020356  0.69159665    -0.20300
C1819       C  0.82959147  0.89769719  0.69446653    -0.20300
C1820       C  0.92307650  0.84652037  0.80023813    -0.20300
C1821       C  0.91627547  0.88346481  0.80367141    -0.20300
C1822       C  0.85858051  0.75400103  0.73590071    -0.21400
C1823       C  0.87426609  0.75206159  0.75404080    -0.21400
C1824       C  0.82404410  0.97801708  0.75282937    -0.21400
C1825       C  0.83754567  0.97566875  0.77147122    -0.21400
C1826       C  0.84289344  0.80567560  0.71338723    -0.16700
C1827       C  0.82697876  0.93824944  0.72355397    -0.16700
C1828       C  0.87507922  0.92998749  0.78915770    -0.16700
C1829       C  0.89820008  0.79861359  0.77758259    -0.16700
H1830       H  0.83329897  0.84643098  0.67762118     0.16200
H1831       H  0.82539841  0.91828397  0.68306998     0.16200
H1832       H  0.94197302  0.82966973  0.80826010     0.16200
H1833       H  0.92902131  0.90052757  0.81475046     0.16200
H1834       H  0.85085518  0.73053103  0.72692942     0.14500
H1835       H  0.88091832  0.72668121  0.76176385     0.14500
H1836       H  0.81001923  0.50146648  0.74666783     0.14500
H1837       H  0.83604461  0.49696893  0.78246357     0.14500
H1838       H  0.83480891  0.86614792  0.73873893     0.27700
H1839       H  0.85939796  0.86279148  0.76940688     0.27700
N1840       N  0.61180719  0.62496224  0.21543028    -0.35000
N1841       N  0.63143996  0.68295283  0.24227976    -0.55600
N1842       N  0.64673905  0.62667568  0.27245866    -0.35000
N1843       N  0.62926359  0.56841461  0.24514091    -0.55600
C1844       C  0.61307879  0.65485292  0.20311992     0.28500
C1845       C  0.61319414  0.59406402  0.20436764     0.28600
C1846       C  0.66221462  0.65739556  0.28040293     0.28500
C1847       C  0.65926145  0.59677941  0.28236453     0.28500
C1848       C  0.61695561  0.70431565  0.22803168     0.37200
C1849       C  0.63663427  0.70513399  0.25784909     0.37200
C1850       C  0.61478262  0.54625409  0.23118869     0.37200
C1851       C  0.63194782  0.54734468  0.26161091     0.37200
C1852       C  0.61490864  0.64278182  0.18401657    -0.20300
C1853       C  0.61503679  0.60449165  0.18479240    -0.20300
C1854       C  0.68459775  0.64693989  0.29568182    -0.20300
C1855       C  0.68264193  0.60869990  0.29695662    -0.20300
C1856       C  0.61283304  0.74028546  0.23459738    -0.21400
C1857       C  0.62536056  0.74082920  0.25349528    -0.21400
C1858       C  0.60832593  0.51082242  0.23883482    -0.21400
C1859       C  0.61915852  0.51152937  0.25809719    -0.21400
C1860       C  0.61097773  0.69257362  0.20866302    -0.16700
C1861       C  0.61016583  0.55679991  0.21131735    -0.16700
C1862       C  0.64875025  0.55926143  0.27913403    -0.16700
C1863       C  0.65470657  0.69457321  0.27512823    -0.16700
H1864       H  0.61586095  0.65977889  0.17086252     0.16200
H1865       H  0.61597883  0.58637289  0.17230116     0.16200
H1866       H  0.70037689  0.66500089  0.30510403     0.16200
H1867       H  0.69675867  0.59164978  0.30747278     0.16200
H1868       H  0.60273186  0.76386710  0.22646979     0.14500
H1869       H  0.62676236  0.76494366  0.26280943     0.14500
H1870       H  0.59746294  0.98681414  0.23125115     0.14500
H1871       H  0.61836308  0.98819347  0.26824344     0.14500
H1872       H  0.60618033  0.62537998  0.23027658     0.27700
H1873       H  0.62584983  0.62642978  0.26235438     0.27700
N1874       N  0.86626243  0.62144075  0.28199216    -0.35000
N1875       N  0.88913276  0.67821946  0.25475638    -0.55600
N1876       N  0.91090817  0.62025788  0.22752884    -0.35000
N1877       N  0.89174109  0.56379310  0.25557640    -0.55600
C1878       C  0.86159785  0.65212109  0.29292155     0.28500
C1879       C  0.86739788  0.59188301  0.29436954     0.28600
C1880       C  0.92672076  0.65046164  0.21909204     0.28500
C1881       C  0.92313592  0.59007022  0.21827985     0.28500
C1882       C  0.87053409  0.70000013  0.26690822     0.37200
C1883       C  0.89804667  0.69953775  0.23909662     0.37200
C1884       C  0.87725896  0.54211217  0.26985414     0.37200
C1885       C  0.89590025  0.54164237  0.23996419     0.37200
C1886       C  0.85906183  0.64188237  0.31245129    -0.20300
C1887       C  0.86294212  0.60390948  0.31338648    -0.20300
C1888       C  0.94925993  0.63930960  0.20418178    -0.20300
C1889       C  0.94676449  0.60111168  0.20359291    -0.20300
C1890       C  0.86803428  0.73556200  0.25905403    -0.21400
C1891       C  0.88561995  0.73532917  0.24144786    -0.21400
C1892       C  0.87299958  0.50578987  0.26343782    -0.21400
C1893       C  0.88459117  0.50555968  0.24443927    -0.21400
C1894       C  0.85837205  0.68885223  0.28562762    -0.16700
C1895       C  0.86939551  0.55416808  0.28887033    -0.16700
C1896       C  0.91183144  0.55310952  0.22217583    -0.16700
C1897       C  0.91853094  0.68769231  0.22311655    -0.16700
H1898       H  0.85493142  0.65989957  0.32475921     0.16200
H1899       H  0.86196206  0.58699558  0.32656911     0.16200
H1900       H  0.96513571  0.65690010  0.19439420     0.16200
H1901       H  0.96057431  0.58351333  0.19346920     0.16200
H1902       H  0.85545624  0.75933200  0.26548506     0.14500
H1903       H  0.88898389  0.75886318  0.23155540     0.14500
H1904       H  0.86249004  0.98195680  0.27157899     0.14500
H1905       H  0.88511987  0.98149047  0.23512319     0.14500
H1906       H  0.86444608  0.62018324  0.26690945     0.27700
H1907       H  0.88948859  0.62050965  0.23714471     0.27700
O1908       O  0.92535223  0.82651079  0.10674908    -0.78600
O1909       O  0.57529862  0.84279236  0.13121633    -0.78600
O1910       O  0.01183268  0.85158134  0.08062131    -0.78600
O1911       O  0.98487983  0.82348530  0.15285089    -0.78500
O1912       O  0.51970604  0.82040238  0.10813092    -0.78700
O1913       O  0.92844334  0.83286518  0.14673812    -0.78600
O1914       O  0.53644642  0.84153312  0.15549746    -0.78600
O1915       O  0.93819889  0.85994836  0.08049133    -0.78600
C1916       C  0.92201765  0.83232785  0.08863833     1.11100
C1917       C  0.56573034  0.83057263  0.14790730     1.11000
C1918       C  0.52278159  0.82295988  0.08975831     1.11100
C1919       C  0.95284242  0.81412595  0.15466039     1.11000
O1920       O  0.92254168  0.91319275  0.14207078    -0.78600
O1921       O  0.56019157  0.88733873  0.09879946    -0.78600
O1922       O  0.94899840  0.93651294  0.09257445    -0.78600
O1923       O  0.52287828  0.91284978  0.16044543    -0.78600
O1924       O  0.55184162  0.91591877  0.13339647    -0.78600
O1925       O  0.90407843  0.90242640  0.10407955    -0.78600
O1926       O  0.95875134  0.89327267  0.16513363    -0.78500
O1927       O  0.02098492  0.92950226  0.09153327    -0.78600
Co1928     Co  0.92614631  0.86968251  0.12439699     1.51500
Co1929     Co  0.53231795  0.86682799  0.12184911     1.51700
Co1930     Co  0.98028584  0.89385532  0.08849557     1.51600
Co1931     Co  0.99520913  0.87471390  0.14698720     1.51500
O1932       O  0.98081941  0.88342445  0.11826008    -1.40500
C1933       C  0.93544228  0.91566999  0.15913306     1.11100
C1934       C  0.55248295  0.91778826  0.09052551     1.11100
C1935       C  0.91581675  0.93071791  0.09485276     1.11100
C1936       C  0.54699705  0.92792407  0.15048768     1.11100
C1937       C  0.92562504  0.94575285  0.17144155    -0.16900
C1938       C  0.92154430  0.97167712  0.18213831     0.07100
C1939       C  0.91922154  0.50130888  0.19534161     0.09000
C1940       C  0.91695202  0.52547524  0.20728905    -0.17800
C1941       C  0.92981084  0.71523116  0.20900750    -0.16900
C1942       C  0.93622875  0.73704052  0.19612780     0.07100
C1943       C  0.94059426  0.76196530  0.18055285     0.09000
C1944       C  0.94434788  0.78453442  0.16774951    -0.17800
C1945       C  0.60206571  0.52801404  0.19700034    -0.16900
C1946       C  0.59406732  0.50577872  0.18444461     0.07100
C1947       C  0.58207555  0.98031767  0.16993338     0.09000
C1948       C  0.56835033  0.95759157  0.15910577    -0.17800
C1949       C  0.58476499  0.80164304  0.15817532    -0.16900
C1950       C  0.59346688  0.77559751  0.16844807     0.07100
C1951       C  0.59978528  0.74553041  0.18167634     0.09000
C1952       C  0.60457985  0.72090590  0.19362593    -0.17800
C1953       C  0.53988840  0.51508925  0.83286426    -0.16900
C1954       C  0.55513225  0.49419841  0.82233979     0.07100
C1955       C  0.57191821  0.97035317  0.80931151     0.09000
C1956       C  0.58425176  0.94891672  0.79795929    -0.17800
C1957       C  0.56589525  0.69334482  0.84629571    -0.16900
C1958       C  0.57972756  0.71227201  0.83340752     0.07100
C1959       C  0.58944785  0.73613109  0.81733593     0.09000
C1960       C  0.59499019  0.75764142  0.80376070    -0.17800
C1961       C  0.88295290  0.95734080  0.80444351    -0.16900
C1962       C  0.88904245  0.98234968  0.81592473     0.07100
C1963       C  0.89777653  0.51271547  0.82855374     0.09000
C1964       C  0.90927941  0.53757491  0.83893318    -0.17800
C1965       C  0.94600152  0.68697792  0.81977581    -0.16900
C1966       C  0.93723458  0.71139431  0.80864734     0.07100
C1967       C  0.92594180  0.74246002  0.79762120     0.09000
C1968       C  0.91455712  0.76889661  0.78874886    -0.17800
C1969       C  0.54645538  0.79856726  0.07955778    -0.16900
C1970       C  0.57091348  0.78580634  0.07028471     0.07100
C1971       C  0.60129928  0.77654411  0.05887217     0.09000
C1972       C  0.62675501  0.77096792  0.04833993    -0.17800
C1973       C  0.89563549  0.81051563  0.07757561    -0.16900
C1974       C  0.87086253  0.79605805  0.06849840     0.07100
C1975       C  0.84060062  0.78217608  0.05753744     0.09000
C1976       C  0.81513822  0.77222364  0.04745341    -0.17800
C1977       C  0.62432896  0.73613798  0.94965803    -0.16900
C1978       C  0.59927753  0.73400720  0.93830976     0.07100
C1979       C  0.56878932  0.72811784  0.92603785     0.09000
C1980       C  0.54314849  0.71692960  0.91665407    -0.17800
C1981       C  0.80822062  0.70908934  0.95211056    -0.16900
C1982       C  0.83132627  0.70023515  0.94081274     0.07100
C1983       C  0.85953015  0.69020999  0.92821573     0.09000
C1984       C  0.88480893  0.68170549  0.91830742    -0.17800
C1985       C  0.57836569  0.93785921  0.07872747    -0.16900
C1986       C  0.59794289  0.95401351  0.06728484     0.07100
C1987       C  0.62023396  0.97107284  0.05294281     0.09000
C1988       C  0.64061048  0.98339266  0.04067321    -0.17800
C1989       C  0.82249185  0.98542427  0.04685596    -0.16900
C1990       C  0.84362919  0.97833067  0.05965024     0.07100
C1991       C  0.86884204  0.96692934  0.07376964     0.09000
C1992       C  0.89069870  0.95323545  0.08449792    -0.17800
C1993       C  0.57694717  0.56526085  0.90787997    -0.16900
C1994       C  0.60251888  0.55424605  0.91700276     0.07100
C1995       C  0.62942483  0.54165039  0.93000480     0.09000
C1996       C  0.65106372  0.03173462  0.94207977    -0.17800
C1997       C  0.83503814  0.00272476  0.94689674    -0.16900
C1998       C  0.86170757  0.50458617  0.93684592     0.07100
C1999       C  0.89389767  0.51155061  0.92627494     0.09000
C2000       C  0.92021298  0.52449316  0.91814846    -0.17800
C2001       C  0.66678234  0.52877529  0.66421441    -0.16900
C2002       C  0.65821937  0.50391363  0.67564017     0.07100
C2003       C  0.64942552  0.97538030  0.68971776     0.09000
C2004       C  0.64250756  0.95143222  0.70196827    -0.17800
C2005       C  0.66843337  0.68128319  0.67173882    -0.16900
C2006       C  0.65491610  0.70557124  0.68098349     0.07100
C2007       C  0.64311242  0.73413478  0.69318771     0.09000
C2008       C  0.63570152  0.75819869  0.70450047    -0.17800
C2009       C  0.81740847  0.96931454  0.71121385    -0.16900
C2010       C  0.81087463  0.99481354  0.70038297     0.07100
C2011       C  0.80384171  0.52361360  0.68699382     0.09000
C2012       C  0.79736937  0.54711727  0.67497329    -0.17800
C2013       C  0.81037511  0.70493354  0.65988253    -0.16900
C2014       C  0.82019379  0.72952701  0.67078802     0.07100
C2015       C  0.82916600  0.75713569  0.68484447     0.09000
C2016       C  0.83568620  0.77966145  0.69751076    -0.17800
C2017       C  0.65741714  0.53166422  0.29418784    -0.16900
C2018       C  0.66588521  0.50966643  0.30688678     0.07100
C2019       C  0.67732609  0.98390229  0.32147569     0.09000
C2020       C  0.68859970  0.96104639  0.33300413    -0.17800
C2021       C  0.69728688  0.80365043  0.32075592    -0.16900
C2022       C  0.68846782  0.77844363  0.31026278     0.07100
C2023       C  0.67736136  0.74883023  0.29825911     0.09000
C2024       C  0.66723080  0.72384760  0.28792705    -0.17800
C2025       C  0.82836795  0.94583167  0.33586555    -0.16900
C2026       C  0.84215856  0.97090417  0.32658389     0.07100
C2027       C  0.85419637  0.50079958  0.31468315     0.09000
C2028       C  0.86193478  0.52577386  0.30351339    -0.17800
C2029       C  0.80474616  0.79069686  0.33184493    -0.16900
C2030       C  0.81654006  0.76716056  0.32128375     0.07100
C2031       C  0.83098866  0.73992794  0.30889137     0.09000
C2032       C  0.84352224  0.71677368  0.29835409    -0.17800
C2033       C  0.64542235  0.67886582  0.59214744    -0.16900
C2034       C  0.62534705  0.69698348  0.58220097     0.07100
C2035       C  0.60388556  0.71747617  0.56907339     0.09000
C2036       C  0.58537414  0.73355956  0.55735957    -0.17800
C2037       C  0.90313724  0.75109936  0.55603664    -0.16900
C2038       C  0.88042702  0.73923714  0.56720779     0.07100
C2039       C  0.85502335  0.72153678  0.57977553     0.09000
C2040       C  0.83424395  0.70277881  0.58944156    -0.17800
C2041       C  0.67598467  0.82126396  0.42586276    -0.16900
C2042       C  0.65225361  0.81158845  0.43713462     0.07100
C2043       C  0.62289307  0.80432115  0.45015317     0.09000
C2044       C  0.59784386  0.79954329  0.46136637    -0.17800
C2045       C  0.91045908  0.81037016  0.45989518    -0.16900
C2046       C  0.88396477  0.81612614  0.45016391     0.07100
C2047       C  0.85141215  0.82266350  0.44006865     0.09000
C2048       C  0.82490651  0.83049506  0.43080531    -0.17800
C2049       C  0.59377329  0.51763619  0.54791164    -0.16900
C2050       C  0.61948198  0.52257270  0.55860083     0.07100
C2051       C  0.65044683  0.53126419  0.57009175     0.09000
C2052       C  0.67546888  0.54341017  0.57966298    -0.17800
C2053       C  0.82466767  0.56320348  0.57201840    -0.16900
C2054       C  0.84917751  0.55177097  0.56228555     0.07100
C2055       C  0.87989857  0.54084513  0.55160232     0.09000
C2056       C  0.90597845  0.53280504  0.54205976    -0.17800
C2057       C  0.59808771  0.98457152  0.44905485    -0.16900
C2058       C  0.61906665  0.97764416  0.43627346     0.07100
C2059       C  0.64174777  0.96704034  0.42091247     0.09000
C2060       C  0.66075850  0.95404482  0.40863778    -0.17800
C2061       C  0.84695804  0.95818928  0.40623064    -0.16900
C2062       C  0.86861527  0.97399599  0.41655387     0.07100
C2063       C  0.89337829  0.98732687  0.43068146     0.09000
C2064       C  0.91452317  0.99510421  0.44349643    -0.17800
loop_ 
_geom_bond_atom_site_label_1 
_geom_bond_atom_site_label_2 
_geom_bond_distance 
_geom_bond_site_symmetry_2 
_ccdc_geom_bond_type 
N1           H33   1.039       .  S
N1            C5   1.355       .  A
N1          C522   1.354       .  A
N2           C10   1.350       .  A
N2         C1041   1.351   1_455  A
N3           H34   1.039       .  S
N3            C8   1.353   1_545  A
N3          C523   1.354   1_545  A
N4           C12   1.356       .  A
N4         C1043   1.355   1_455  A
C5           C13   1.387       .  A
C5           C21   1.416       .  A
C6          N517   1.354       .  A
C6           C22   1.416       .  A
C6           C14   1.388       .  A
C7          N519   1.354       .  A
C7           C15   1.387       .  A
C7           C24   1.415       .  A
C8           C23   1.416   1_565  A
C8           C16   1.389       .  A
C9         N1034   1.351       .  A
C9           C21   1.409       .  A
C9           C17   1.386       .  A
C10          C24   1.410       .  A
C10          C18   1.388       .  A
C11        N1036   1.355       .  A
C11          C19   1.387       .  A
C11          C22   1.420       .  A
C12          C20   1.386       .  A
C12          C23   1.420       .  A
C13         C530   1.376       .  A
C13          H25   1.082       .  S
C14         C529   1.376   1_545  A
C14          H26   1.082   1_545  S
C15         C532   1.376       .  A
C15          H27   1.082       .  S
C16         C531   1.376       .  A
C16          H28   1.082       .  S
C17        C1050   1.371       .  A
C17          H29   1.082       .  S
C18        C1049   1.371   1_455  A
C18          H30   1.082       .  S
C19        C1052   1.379       .  A
C19          H31   1.082       .  S
C20        C1051   1.379   1_455  A
C20          H32   1.082       .  S
C21         C516   1.453       .  S
C22         C508   1.461       .  S
C23         C501   1.461       .  S
C24         C509   1.450       .  S
N35          H67   1.039       .  S
N35          C40   1.355       .  A
N35          C39   1.357       .  A
N36          C44   1.354       .  A
N36        C1075   1.356       .  A
N37          H68   1.040       .  S
N37          C42   1.356       .  A
N37          C41   1.352       .  A
N38          C46   1.352       .  A
N38        C1077   1.350       .  A
C39          C47   1.387       .  A
C39          C55   1.420       .  A
C40          C56   1.420       .  A
C40          C48   1.388       .  A
C41          C49   1.390       .  A
C41          C58   1.415       .  A
C42          C57   1.413       .  A
C42          C50   1.386       .  A
C43        N1068   1.356       .  A
C43          C55   1.421       .  A
C43          C51   1.387       .  A
C44          C58   1.419       .  A
C44          C52   1.387       .  A
C45        N1070   1.350   1_455  A
C45          C53   1.388       .  A
C45          C56   1.412       .  A
C46          C54   1.386       .  A
C46          C57   1.410       .  A
C47          C48   1.376       .  A
C47          H59   1.082       .  S
C48          H60   1.082       .  S
C49          C50   1.372       .  A
C49          H61   1.082       .  S
C50          H62   1.082       .  S
C51        C1084   1.378   1_455  A
C51          H63   1.082       .  S
C52        C1083   1.378       .  A
C52          H64   1.082       .  S
C53        C1086   1.371   1_455  A
C53          H65   1.082       .  S
C54        C1085   1.371       .  A
C54          H66   1.082       .  S
C55         C496   1.467       .  S
C56         C488   1.451       .  S
C57         C489   1.454       .  S
C58         C497   1.453       .  S
O69          C77   1.257       .  A
O69         Co89   1.962       .  S
O70          C78   1.293       .  A
O70         Co90   2.064       .  S
O71          C79   1.281       .  A
O71         Co91   2.040       .  S
O72          C80   1.254       .  A
O72         Co92   2.011       .  S
O73          C79   1.274       .  A
O73         Co90   1.980       .  S
O74          C80   1.254       .  A
O74         Co89   1.992       .  S
O75          C78   1.271       .  A
O75         Co92   1.917       .  S
O76          C77   1.269       .  A
O76         Co91   2.021       .  S
C77         C500   1.436       .  S
C78         C473   1.429       .  S
C79         C493   1.450       .  S
C80         C481   1.443       .  S
O81          C94   1.277       .  A
O81         Co89   2.031       .  S
O82          C95   1.256       .  A
O82         Co90   2.004       .  S
O83          C96   1.260       .  A
O83         Co91   1.969       .  S
O84          C97   1.265       .  A
O84         Co92   1.949       .  S
O85          C97   1.280       .  A
O85         Co90   2.078       .  S
O86          C96   1.269       .  A
O86         Co89   2.019       .  S
O87          C94   1.279       .  A
O87         Co92   1.995       .  S
O88          C95   1.250       .  A
O88         Co91   1.968       .  S
Co89         O93   2.069       .  S
Co90         O93   2.164       .  S
Co91         O93   2.049       .  S
Co92         O93   1.926       .  S
C94         C477   1.430       .  S
C95         C512   1.433       .  S
C96         C513   1.436       .  S
C97         C472   1.447       .  S
O98         C106   1.267       .  A
O98        Co118   2.013       .  S
O99         C107   1.292       .  A
O99        Co119   2.110       .  S
O100        C108   1.258       .  A
O100       Co120   1.975       .  S
O101        C109   1.264       .  A
O101       Co121   1.968       .  S
O102        C108   1.265       .  A
O102       Co119   2.010       .  S
O103        C109   1.281       .  A
O103       Co118   2.047       .  S
O104        C107   1.260       .  A
O104       Co121   1.895       .  S
O105        C106   1.260       .  A
O105       Co120   1.972       .  S
C106        C492   1.437       .  S
C107        C457   1.433       .  S
C108        C485   1.435       .  S
C109        C465   1.447       .  S
O110        C123   1.255       .  A
O110       Co118   1.975       .  S
O111        C124   1.270       .  A
O111       Co119   1.976       .  S
O112        C125   1.276       .  A
O112       Co120   2.036       .  S
O113        C126   1.292       .  A
O113       Co121   2.104       .  S
O114        C126   1.269       .  A
O114       Co119   1.921       .  S
O115        C125   1.262       .  A
O115       Co118   1.968       .  S
O116        C123   1.256       .  A
O116       Co121   1.992       .  S
O117        C124   1.277       .  A
O117       Co120   2.026       .  S
Co118       O122   2.049       .  S
Co119       O122   2.031       .  S
Co120       O122   2.035       .  S
Co121       O122   2.006       .  S
C123        C464   1.426       .  S
C124        C504   1.444       .  S
C125        C505   1.446       .  S
C126        C453   1.455       .  S
N127        H159   1.030       .  S
N127        C132   1.356   1_556  A
N127        C131   1.353       .  A
N128        C135   1.352       .  A
N128        C136   1.353       .  A
N129        H160   1.031       .  S
N129        C134   1.354   1_556  A
N129        C133   1.354       .  A
N130        C137   1.348       .  A
N130        C138   1.348       .  A
C131        C139   1.387       .  A
C131        C147   1.414       .  A
C132        C148   1.416       .  A
C132        C140   1.387   1_554  A
C133        C141   1.387       .  A
C133        C150   1.413       .  A
C134        C149   1.412       .  A
C134        C142   1.386       .  A
C135        C147   1.413       .  A
C135        C143   1.387       .  A
C136        C150   1.413       .  A
C136        C144   1.386       .  A
C137        C145   1.387       .  A
C137        C148   1.407       .  A
C138        C146   1.387       .  A
C138        C149   1.407       .  A
C139        C140   1.380       .  A
C139        H151   1.082       .  S
C140        H152   1.082   1_556  S
C141        C142   1.376   1_556  A
C141        H153   1.082       .  S
C142        H154   1.082       .  S
C143        C144   1.376       .  A
C143        H671   1.082       .  S
C144        H672   1.082       .  S
C145        C146   1.373       .  A
C145        H157   1.082       .  S
C146        H158   1.082       .  S
C147        C448   1.453       .  S
C148        C440   1.450       .  S
C149        C441   1.447       .  S
C150        C449   1.454       .  S
H155        C659   1.082       .  S
H156        C660   1.082       .  S
N161        H193   1.037       .  S
N161        C166   1.355   1_554  A
N161        C165   1.358       .  A
N162        C169   1.356       .  A
N162        C170   1.355       .  A
N163        H194   1.037   1_556  S
N163        C168   1.357       .  A
N163        C167   1.353   1_556  A
N164        C171   1.351       .  A
N164        C172   1.353       .  A
C165        C173   1.388       .  A
C165        C181   1.421       .  A
C166        C182   1.418       .  A
C166        C174   1.387       .  A
C167        C175   1.388       .  A
C167        C184   1.417       .  A
C168        C183   1.417       .  A
C168        C176   1.387       .  A
C169        C181   1.421       .  A
C169        C177   1.386       .  A
C170        C184   1.420       .  A
C170        C178   1.387       .  A
C171        C179   1.388       .  A
C171        C182   1.414       .  A
C172        C180   1.386       .  A
C172        C183   1.414       .  A
C173        C174   1.377   1_554  A
C173        H185   1.082       .  S
C174        H186   1.082       .  S
C175        C176   1.376   1_554  A
C175        H187   1.082       .  S
C176        H188   1.082       .  S
C177        C178   1.380       .  A
C177        H189   1.082       .  S
C178        H190   1.082       .  S
C179        C180   1.376       .  A
C179        H191   1.082       .  S
C180        H192   1.082       .  S
C181        C428   1.471       .  S
C182        C433   1.454       .  S
C183        C429   1.461       .  S
C184        C424   1.461       .  S
O195        C203   1.256       .  A
O195      Co1247   1.991   1_455  S
O196        C204   1.272       .  A
O196      Co1248   1.995   1_455  S
O197        C205   1.293       .  A
O197      Co1249   1.986   1_455  S
O198        C206   1.272   1_655  A
O198      Co1250   2.036       .  S
O199        C205   1.289       .  A
O199      Co1248   1.962   1_455  S
O200        C206   1.250       .  A
O200      Co1247   1.948   1_455  S
O201        C204   1.271       .  A
O201      Co1250   2.012   1_455  S
O202        C203   1.256       .  A
O202      Co1249   1.990   1_455  S
C203        C445   1.438       .  S
C204        C409   1.448       .  S
C205        C405   1.425       .  S
C206        C432   1.442       .  S
O207        C220   1.269       .  A
O207       Co215   2.010       .  S
O208        C221   1.249       .  A
O208       Co216   2.047       .  S
O209        C222   1.276       .  A
O209       Co217   2.024       .  S
O210        C223   1.262       .  A
O210       Co218   1.977       .  S
O211        C223   1.268       .  A
O211       Co216   2.011       .  S
O212        C222   1.261       .  A
O212       Co215   1.958       .  S
O213        C220   1.263       .  A
O213       Co218   1.973       .  S
O214        C221   1.232       .  A
O214       Co217   1.978       .  S
Co215      O1227   1.991       .  S
Co215      O1232   1.948       .  S
Co215       O219   2.056       .  S
Co216      O1228   1.995       .  S
Co216      O1231   1.962       .  S
Co216       O219   2.084       .  S
Co217      O1229   1.986       .  S
Co217      O1234   1.990       .  S
Co217       O219   2.018       .  S
Co218      O1230   2.036       .  S
Co218      O1233   2.012       .  S
Co218       O219   2.053       .  S
C220        C436   1.439       .  S
C221        C416   1.452       .  S
C222        C452   1.437       .  S
C223        C417   1.434       .  S
N224        H256   1.035       .  S
N224        C229   1.351       .  A
N224        C228   1.358       .  A
N225        C232   1.357       .  A
N225        C233   1.351       .  A
N226        H257   1.035       .  S
N226        C231   1.360       .  A
N226        C230   1.353       .  A
N227        C234   1.350       .  A
N227        C235   1.355       .  A
C228        C236   1.385       .  A
C228        C244   1.414       .  A
C229        C245   1.417       .  A
C229        C237   1.391       .  A
C230        C238   1.389       .  A
C230        C247   1.420       .  A
C231        C246   1.420       .  A
C231        C239   1.385       .  A
C232        C244   1.415       .  A
C232        C240   1.384       .  A
C233        C247   1.419       .  A
C233        C241   1.390       .  A
C234        C242   1.388       .  A
C234        C245   1.415       .  A
C235        C243   1.386       .  A
C235        C246   1.416       .  A
C236        C237   1.374       .  A
C236        H248   1.082       .  S
C237        H249   1.082       .  S
C238        C239   1.377       .  A
C238        H250   1.082       .  S
C239        H251   1.082       .  S
C240        C241   1.374       .  A
C240        H252   1.082       .  S
C241        H253   1.082       .  S
C242        C243   1.375       .  A
C242        H770   1.082       .  S
C243        H771   1.082       .  S
C244        C412   1.467       .  S
C245        C408   1.442       .  S
C246        C456   1.470       .  S
C247        C460   1.450       .  S
H254        C758   1.082       .  S
H255        C759   1.082       .  S
N258        H290   1.037       .  S
N258        C263   1.351       .  A
N258        C262   1.356       .  A
N259        C266   1.355       .  A
N259        C267   1.351       .  A
N260        H291   1.037       .  S
N260        C265   1.360       .  A
N260        C264   1.354       .  A
N261        C268   1.350       .  A
N261        C269   1.354       .  A
C262        C270   1.385       .  A
C262        C278   1.414       .  A
C263        C279   1.416       .  A
C263        C271   1.390       .  A
C264        C272   1.389       .  A
C264        C281   1.421       .  A
C265        C280   1.422       .  A
C265        C273   1.386       .  A
C266        C278   1.413       .  A
C266        C274   1.384       .  A
C267        C281   1.416       .  A
C267        C275   1.389       .  A
C268        C276   1.388       .  A
C268        C279   1.412       .  A
C269        C277   1.386       .  A
C269        C280   1.414       .  A
C270        C271   1.376       .  A
C270        H282   1.082       .  S
C271        H283   1.082       .  S
C272        C273   1.381       .  A
C272        H284   1.082       .  S
C273        H285   1.082       .  S
C274        C275   1.372       .  A
C274        H286   1.082       .  S
C275        H287   1.082       .  S
C276        C277   1.372       .  A
C276        H804   1.082       .  S
C277        H805   1.082       .  S
C278        C468   1.462       .  S
C279        C461   1.443       .  S
C280        C413   1.469       .  S
C281        C420   1.450       .  S
H288        C792   1.082   1_545  S
H289        C793   1.082       .  S
N292        H324   1.039       .  S
N292        C297   1.354       .  A
N292        C296   1.358       .  A
N293        C300   1.353       .  A
N293        C301   1.349       .  A
N294        H325   1.038       .  S
N294        C299   1.355       .  A
N294        C298   1.352       .  A
N295        C302   1.353       .  A
N295        C303   1.355       .  A
C296        C304   1.385       .  A
C296        C312   1.416       .  A
C297        C313   1.418       .  A
C297        C305   1.389       .  A
C298        C306   1.388       .  A
C298        C315   1.414       .  A
C299        C314   1.415       .  A
C299        C307   1.387       .  A
C300        C312   1.412       .  A
C300        C308   1.386       .  A
C301        C315   1.411       .  A
C301        C309   1.388       .  A
C302        C310   1.387       .  A
C302        C313   1.419       .  A
C303        C311   1.386       .  A
C303        C314   1.417       .  A
C304        C305   1.377       .  A
C304        H316   1.082       .  S
C305        H317   1.082       .  S
C306        C307   1.377       .  A
C306        H318   1.082       .  S
C307        H319   1.082       .  S
C308        C309   1.374       .  A
C308        H320   1.082       .  S
C309        H321   1.082       .  S
C310        C311   1.378       .  A
C310        H838   1.082   1_545  S
C311        H839   1.082   1_545  S
C312        C404   1.462       .  S
C313        C397   1.459       .  S
C314        C469   1.462       .  S
C315        C476   1.445       .  S
H322        C826   1.082       .  S
H323        C827   1.082       .  S
N326        H358   1.036       .  S
N326        C331   1.352       .  A
N326        C330   1.355       .  A
N327        C334   1.352       .  A
N327        C335   1.348       .  A
N328        H359   1.035       .  S
N328        C333   1.351       .  A
N328        C332   1.347       .  A
N329        C336   1.348       .  A
N329        C337   1.352       .  A
C330        C338   1.385       .  A
C330        C346   1.414       .  A
C331        C347   1.415       .  A
C331        C339   1.388       .  A
C332        C340   1.391       .  A
C332        C349   1.410       .  A
C333        C348   1.407       .  A
C333        C341   1.385       .  A
C334        C346   1.411       .  A
C334        C342   1.386       .  A
C335        C349   1.410       .  A
C335        C343   1.388       .  A
C336        C344   1.388       .  A
C336        C347   1.411       .  A
C337        C345   1.385       .  A
C337        C348   1.409       .  A
C338        C339   1.377       .  A
C338        H350   1.082       .  S
C339        H351   1.082       .  S
C340        C341   1.375       .  A
C340        H352   1.083       .  S
C341        H353   1.083       .  S
C342        C343   1.373       .  A
C342        H354   1.082       .  S
C343        H355   1.082       .  S
C344        C345   1.371       .  A
C344        H872   1.082   1_545  S
C345        H873   1.082   1_545  S
C346        C484   1.456       .  S
C347        C480   1.445       .  S
C348        C392   1.448       .  S
C349        C393   1.431       .  S
H356        C860   1.082       .  S
H357        C861   1.082       .  S
O360        C368   1.261       .  A
O360       Co380   1.978       .  S
O361        C369   1.268       .  A
O361       Co381   1.938       .  S
O362       C1402   1.272       .  A
O362       Co382   2.020       .  S
O363        C371   1.236       .  A
O363       Co383   1.910       .  S
O364        C370   1.265       .  A
O364       Co381   1.971       .  S
O365        C371   1.260       .  A
O365       Co380   2.013       .  S
O366        C369   1.280       .  A
O366      Co1415   2.044   1_455  S
O367        C368   1.273       .  A
O367       Co382   2.039       .  S
C368        C425   1.458       .  S
C369        C401   1.446       .  S
C370        C421   1.444       .  S
C370       O1394   1.272       .  A
C371        C396   1.413       .  S
O372        C385   1.265       .  A
O372       Co380   1.996       .  S
O373        C386   1.265       .  A
O373       Co381   2.013       .  S
O374        C387   1.256       .  A
O374       Co382   1.969       .  S
O375        C388   1.239       .  A
O375      Co1415   1.935   1_455  S
O376        C388   1.267       .  A
O376       Co381   2.058       .  S
O377        C387   1.261       .  A
O377       Co380   1.998       .  S
O378        C385   1.261       .  A
O378       Co383   1.974       .  S
O379       C1418   1.256       .  A
O379       Co382   1.972       .  S
Co380       O384   2.123       .  S
Co381      O1416   2.032   1_455  S
Co382       O384   2.067       .  S
Co383      O1398   2.044       .  S
Co383      O1407   1.935       .  S
Co383       O384   2.059       .  S
O384      Co1413   2.032       .  S
C385        C389   1.433       .  S
C386        C437   1.434       .  S
C386       O1411   1.256       .  A
C387        C444   1.431       .  S
C388        C400   1.445       .  S
C389        C390   1.205       .  T
C390        C907   1.410       .  S
C391        C392   1.205       .  T
C391        C906   1.410   1_545  S
C393        C394   1.194       .  T
C394        C395   1.392       .  S
C395        C396   1.193       .  T
C397        C398   1.212       .  T
C398        C915   1.423   1_545  S
C399        C400   1.212       .  T
C399        C914   1.423       .  S
C401        C402   1.214       .  T
C402        C403   1.425       .  S
C403        C404   1.214       .  T
C405        C406   1.200   1_545  T
C406        C923   1.402       .  S
C407        C408   1.200       .  T
C407        C922   1.402       .  S
C409        C410   1.216       .  T
C410        C411   1.429       .  S
C411        C412   1.217       .  T
C413        C414   1.218       .  T
C414        C931   1.431       .  S
C415        C416   1.217       .  T
C415        C930   1.431   1_545  S
C417        C418   1.205       .  T
C418        C419   1.412       .  S
C419        C420   1.206       .  T
C421        C422   1.212       .  T
C422        C423   1.423       .  S
C423        C424   1.213       .  T
C425        C426   1.219       .  T
C426        C427   1.434       .  S
C427        C428   1.219       .  T
C429        C430   1.213       .  T
C430        C431   1.422       .  S
C431        C432   1.212       .  T
C433        C434   1.208       .  T
C434        C435   1.415       .  S
C435        C436   1.208       .  T
C437        C438   1.206       .  T
C438        C439   1.412       .  S
C439        C440   1.206       .  T
C441        C442   1.204       .  T
C442        C443   1.409       .  S
C443        C444   1.204       .  T
C445        C446   1.208       .  T
C446        C447   1.416       .  S
C447        C964   1.208       .  T
C448        C963   1.208       .  T
C449        C966   1.209       .  T
C450        C965   1.209       .  T
C450        C451   1.416       .  S
C451        C452   1.208       .  T
C453        C454   1.218       .  T
C454        C971   1.432   1_545  S
C455        C456   1.218       .  T
C455        C970   1.432       .  S
C457        C458   1.205       .  T
C458        C459   1.410       .  S
C459        C460   1.205       .  T
C461        C462   1.201       .  T
C462        C979   1.403       .  S
C463        C464   1.200       .  T
C463        C978   1.403   1_545  S
C465        C466   1.213       .  T
C466        C467   1.424       .  S
C467        C468   1.214       .  T
C469        C470   1.214       .  T
C470        C987   1.425   1_545  S
C471        C472   1.213       .  T
C471        C986   1.425       .  S
C473        C474   1.202       .  T
C474        C475   1.406       .  S
C475        C476   1.203       .  T
C477        C478   1.202       .  T
C478        C995   1.406       .  S
C479        C480   1.203       .  T
C479        C994   1.406   1_545  S
C481        C482   1.210       .  T
C482        C483   1.419       .  S
C483        C484   1.210       .  T
C485        C486   1.206       .  T
C486        C487   1.412       .  S
C487        C488   1.206       .  T
C489        C490   1.208       .  T
C490        C491   1.414       .  S
C491        C492   1.207       .  T
C493        C494   1.216       .  T
C494        C495   1.429       .  S
C495        C496   1.216       .  T
C497        C498   1.208       .  T
C498        C499   1.415       .  S
C499        C500   1.207       .  T
C501        C502   1.213       .  T
C502        C503   1.423       .  S
C503        C504   1.212       .  T
C505        C506   1.213       .  T
C506        C507   1.423       .  S
C507        C508   1.213       .  T
C509        C510   1.206       .  T
C510        C511   1.411       .  S
C511        C512   1.205       .  T
C513        C514   1.206       .  T
C514        C515   1.413       .  S
C515        C516   1.207       .  T
N517        H549   1.039       .  S
N517        C521   1.355       .  A
N518       C1557   1.351   1_465  A
N518        C526   1.350       .  A
N519        H550   1.039       .  S
N519        C524   1.353       .  A
N520       C1559   1.355   1_455  A
N520        C528   1.356       .  A
C521        C529   1.387   1_545  A
C521        C537   1.416       .  A
C522        C538   1.416       .  A
C522        C530   1.388       .  A
C523        C531   1.387       .  A
C523        C540   1.415       .  A
C524        C539   1.416       .  A
C524        C532   1.389       .  A
C525       N1550   1.351   1_545  A
C525        C537   1.409       .  A
C525        C533   1.386       .  A
C526        C540   1.410       .  A
C526        C534   1.388   1_565  A
C527       N1552   1.355       .  A
C527        C535   1.387       .  A
C527        C538   1.420       .  A
C528        C536   1.386       .  A
C528        C539   1.420       .  A
C529        H541   1.082       .  S
C530        H542   1.082       .  S
C531        H543   1.082       .  S
C532        H544   1.082       .  S
C533       C1566   1.371       .  A
C533        H545   1.082       .  S
C534       C1565   1.371   1_455  A
C534        H546   1.082       .  S
C535       C1568   1.379       .  A
C535        H547   1.082       .  S
C536       C1567   1.379   1_455  A
C536        H548   1.082       .  S
C537       C1032   1.453   1_545  S
C538       C1024   1.461       .  S
C539       C1017   1.461       .  S
C540       C1025   1.450       .  S
N551        H583   1.039       .  S
N551        C556   1.355       .  A
N551        C555   1.357       .  A
N552       C1591   1.356       .  A
N552        C560   1.354       .  A
N553        H584   1.040       .  S
N553        C558   1.356       .  A
N553        C557   1.352       .  A
N554       C1593   1.350       .  A
N554        C562   1.352       .  A
C555        C563   1.387       .  A
C555        C571   1.420       .  A
C556        C572   1.420       .  A
C556        C564   1.388       .  A
C557        C565   1.390       .  A
C557        C574   1.415       .  A
C558        C573   1.413       .  A
C558        C566   1.386       .  A
C559       N1584   1.356       .  A
C559        C571   1.421       .  A
C559        C567   1.387       .  A
C560        C574   1.419       .  A
C560        C568   1.387       .  A
C561       N1586   1.350   1_455  A
C561        C569   1.388       .  A
C561        C572   1.412       .  A
C562        C570   1.386       .  A
C562        C573   1.410       .  A
C563        C564   1.376       .  A
C563        H575   1.082       .  S
C564        H576   1.082       .  S
C565        C566   1.372       .  A
C565        H577   1.082       .  S
C566        H578   1.082       .  S
C567       C1600   1.378   1_455  A
C567        H579   1.082       .  S
C568       C1599   1.378       .  A
C568        H580   1.082       .  S
C569       C1602   1.371   1_455  A
C569        H581   1.082       .  S
C570       C1601   1.371       .  A
C570        H582   1.082       .  S
C571       C1012   1.467       .  S
C572       C1004   1.451       .  S
C573       C1005   1.454       .  S
C574       C1013   1.453       .  S
O585        C593   1.257       .  A
O585       Co605   1.962       .  S
O586        C594   1.293       .  A
O586       Co606   2.064       .  S
O587        C595   1.281       .  A
O587       Co607   2.040       .  S
O588        C596   1.254       .  A
O588       Co608   2.011       .  S
O589        C595   1.274       .  A
O589       Co606   1.980       .  S
O590        C596   1.254       .  A
O590       Co605   1.992       .  S
O591        C594   1.271       .  A
O591       Co608   1.917       .  S
O592        C593   1.269       .  A
O592       Co607   2.021       .  S
C593       C1016   1.436       .  S
C594        C989   1.429       .  S
C595       C1009   1.450       .  S
C596        C997   1.443       .  S
O597        C610   1.277       .  A
O597       Co605   2.031       .  S
O598        C611   1.256       .  A
O598       Co606   2.004       .  S
O599        C612   1.260       .  A
O599       Co607   1.969       .  S
O600        C613   1.265       .  A
O600       Co608   1.949       .  S
O601        C613   1.280       .  A
O601       Co606   2.078       .  S
O602        C612   1.269       .  A
O602       Co605   2.019       .  S
O603        C610   1.279       .  A
O603       Co608   1.995       .  S
O604        C611   1.250       .  A
O604       Co607   1.968       .  S
Co605       O609   2.069       .  S
Co606       O609   2.164       .  S
Co607       O609   2.049       .  S
Co608       O609   1.926       .  S
C610        C993   1.430       .  S
C611       C1028   1.433       .  S
C612       C1029   1.436       .  S
C613        C988   1.447       .  S
O614        C622   1.267       .  A
O614       Co634   2.013       .  S
O615        C623   1.292       .  A
O615       Co635   2.110       .  S
O616        C624   1.258       .  A
O616       Co636   1.975       .  S
O617        C625   1.264       .  A
O617       Co637   1.968       .  S
O618        C624   1.265       .  A
O618       Co635   2.010       .  S
O619        C625   1.281       .  A
O619       Co634   2.047       .  S
O620        C623   1.260       .  A
O620       Co637   1.895       .  S
O621        C622   1.260       .  A
O621       Co636   1.972       .  S
C622       C1008   1.437       .  S
C623        C973   1.433       .  S
C624       C1001   1.435       .  S
C625        C981   1.447       .  S
O626        C639   1.255       .  A
O626       Co634   1.975       .  S
O627        C640   1.270       .  A
O627       Co635   1.976       .  S
O628        C641   1.276       .  A
O628       Co636   2.036       .  S
O629        C642   1.292       .  A
O629       Co637   2.104       .  S
O630        C642   1.269       .  A
O630       Co635   1.921       .  S
O631        C641   1.262       .  A
O631       Co634   1.968       .  S
O632        C639   1.256       .  A
O632       Co637   1.992       .  S
O633        C640   1.277       .  A
O633       Co636   2.026       .  S
Co634       O638   2.049       .  S
Co635       O638   2.031       .  S
Co636       O638   2.035       .  S
Co637       O638   2.006       .  S
C639        C980   1.426       .  S
C640       C1020   1.444       .  S
C641       C1021   1.446       .  S
C642        C969   1.455       .  S
N643        H675   1.030       .  S
N643        C648   1.356   1_546  A
N643        C647   1.353       .  A
N644        C651   1.352       .  A
N644        C652   1.353       .  A
N645        H676   1.031   1_565  S
N645        C650   1.354   1_556  A
N645        C649   1.354       .  A
N646        C653   1.348   1_565  A
N646        C654   1.348       .  A
C647        C655   1.387   1_545  A
C647        C663   1.414       .  A
C648        C664   1.416       .  A
C648        C656   1.387   1_554  A
C649        C657   1.387       .  A
C649        C666   1.413   1_565  A
C650        C665   1.412       .  A
C650        C658   1.386       .  A
C651        C663   1.413       .  A
C651        C659   1.387       .  A
C652        C666   1.413       .  A
C652        C660   1.386       .  A
C653        C661   1.387       .  A
C653        C664   1.407   1_545  A
C654        C662   1.387   1_565  A
C654        C665   1.407       .  A
C655        C656   1.380       .  A
C655        H667   1.082       .  S
C656        H668   1.082   1_556  S
C657        C658   1.376   1_556  A
C657        H669   1.082       .  S
C658        H670   1.082       .  S
C659        C660   1.376       .  A
C661        C662   1.373       .  A
C661        H673   1.082       .  S
C662        H674   1.082       .  S
C663        C964   1.453       .  S
C664        C956   1.450       .  S
C665        C957   1.447       .  S
C666        C965   1.454       .  S
N677        H709   1.037       .  S
N677        C682   1.355   1_554  A
N677        C681   1.358       .  A
N678        C685   1.356       .  A
N678        C686   1.355       .  A
N679        H710   1.037   1_556  S
N679        C684   1.357       .  A
N679        C683   1.353   1_556  A
N680        C687   1.351       .  A
N680        C688   1.353       .  A
C681        C689   1.388       .  A
C681        C697   1.421       .  A
C682        C698   1.418       .  A
C682        C690   1.387       .  A
C683        C691   1.388       .  A
C683        C700   1.417       .  A
C684        C699   1.417       .  A
C684        C692   1.387       .  A
C685        C697   1.421       .  A
C685        C693   1.386       .  A
C686        C700   1.420       .  A
C686        C694   1.387       .  A
C687        C695   1.388       .  A
C687        C698   1.414       .  A
C688        C696   1.386       .  A
C688        C699   1.414       .  A
C689        C690   1.377   1_554  A
C689        H701   1.082       .  S
C690        H702   1.082       .  S
C691        C692   1.376   1_554  A
C691        H703   1.082       .  S
C692        H704   1.082       .  S
C693        C694   1.380       .  A
C693        H705   1.082       .  S
C694        H706   1.082       .  S
C695        C696   1.376       .  A
C695        H707   1.082       .  S
C696        H708   1.082       .  S
C697        C944   1.471       .  S
C698        C949   1.454       .  S
C699        C945   1.461       .  S
C700        C940   1.461       .  S
O711        C719   1.256       .  A
O711      Co1763   1.991   1_455  S
O712        C720   1.272       .  A
O712      Co1764   1.995   1_455  S
O713        C721   1.293       .  A
O713      Co1765   1.986   1_455  S
O714        C722   1.272   1_655  A
O714      Co1766   2.036       .  S
O715        C721   1.289       .  A
O715      Co1764   1.962   1_455  S
O716        C722   1.250       .  A
O716      Co1763   1.948   1_455  S
O717        C720   1.271       .  A
O717      Co1766   2.012   1_455  S
O718        C719   1.256       .  A
O718      Co1765   1.990   1_455  S
C719        C961   1.438       .  S
C720        C925   1.448       .  S
C721        C921   1.425       .  S
C722        C948   1.442       .  S
O723        C736   1.269       .  A
O723       Co731   2.010       .  S
O724        C737   1.249       .  A
O724       Co732   2.047       .  S
O725        C738   1.276       .  A
O725       Co733   2.025       .  S
O726        C739   1.262       .  A
O726       Co734   1.977       .  S
O727        C739   1.268       .  A
O727       Co732   2.011       .  S
O728        C738   1.261       .  A
O728       Co731   1.958       .  S
O729        C736   1.263       .  A
O729       Co734   1.973       .  S
O730        C737   1.232       .  A
O730       Co733   1.978       .  S
Co731      O1743   1.991       .  S
Co731      O1748   1.948       .  S
Co731       O735   2.056       .  S
Co732      O1744   1.995       .  S
Co732      O1747   1.962       .  S
Co732       O735   2.084       .  S
Co733      O1745   1.986       .  S
Co733      O1750   1.990       .  S
Co733       O735   2.018       .  S
Co734      O1746   2.036       .  S
Co734      O1749   2.013       .  S
Co734       O735   2.053       .  S
C736        C952   1.439       .  S
C737        C932   1.452       .  S
C738        C968   1.437       .  S
C739        C933   1.434       .  S
N740        H772   1.035       .  S
N740        C745   1.351       .  A
N740        C744   1.358       .  A
N741        C748   1.357       .  A
N741        C749   1.351       .  A
N742        H773   1.035       .  S
N742        C747   1.360       .  A
N742        C746   1.353       .  A
N743        C750   1.350       .  A
N743        C751   1.355       .  A
C744        C752   1.385       .  A
C744        C760   1.414       .  A
C745        C761   1.417       .  A
C745        C753   1.391       .  A
C746        C754   1.389       .  A
C746        C763   1.420       .  A
C747        C762   1.420       .  A
C747        C755   1.385       .  A
C748        C760   1.415       .  A
C748        C756   1.384       .  A
C749        C763   1.419       .  A
C749        C757   1.390       .  A
C750        C758   1.388       .  A
C750        C761   1.415       .  A
C751        C759   1.386       .  A
C751        C762   1.416       .  A
C752        C753   1.374       .  A
C752        H764   1.082       .  S
C753        H765   1.082       .  S
C754        C755   1.377       .  A
C754        H766   1.082       .  S
C755        H767   1.082       .  S
C756        C757   1.374       .  A
C756        H768   1.082       .  S
C757        H769   1.082       .  S
C758        C759   1.375       .  A
C760        C928   1.467       .  S
C761        C924   1.442       .  S
C762        C972   1.470       .  S
C763        C976   1.450       .  S
N774        H806   1.037       .  S
N774        C779   1.351       .  A
N774        C778   1.356       .  A
N775        C782   1.355       .  A
N775        C783   1.351       .  A
N776        H807   1.037       .  S
N776        C781   1.360       .  A
N776        C780   1.354       .  A
N777        C784   1.350       .  A
N777        C785   1.354       .  A
C778        C786   1.385       .  A
C778        C794   1.414       .  A
C779        C795   1.416       .  A
C779        C787   1.390       .  A
C780        C788   1.389       .  A
C780        C797   1.421       .  A
C781        C796   1.422       .  A
C781        C789   1.386       .  A
C782        C794   1.413       .  A
C782        C790   1.384       .  A
C783        C797   1.416       .  A
C783        C791   1.389       .  A
C784        C792   1.388       .  A
C784        C795   1.412       .  A
C785        C793   1.386       .  A
C785        C796   1.414       .  A
C786        C787   1.376       .  A
C786        H798   1.082       .  S
C787        H799   1.082       .  S
C788        C789   1.381       .  A
C788        H800   1.082       .  S
C789        H801   1.082       .  S
C790        C791   1.372       .  A
C790        H802   1.082       .  S
C791        H803   1.082       .  S
C792        C793   1.372       .  A
C794        C984   1.462       .  S
C795        C977   1.443       .  S
C796        C929   1.469       .  S
C797        C936   1.450       .  S
N808        H840   1.039       .  S
N808        C813   1.354       .  A
N808        C812   1.358       .  A
N809        C816   1.353       .  A
N809        C817   1.349       .  A
N810        H841   1.038       .  S
N810        C815   1.355       .  A
N810        C814   1.352       .  A
N811        C818   1.353       .  A
N811        C819   1.355       .  A
C812        C820   1.385       .  A
C812        C828   1.416       .  A
C813        C829   1.418       .  A
C813        C821   1.389       .  A
C814        C822   1.388       .  A
C814        C831   1.414       .  A
C815        C830   1.415       .  A
C815        C823   1.387       .  A
C816        C828   1.412       .  A
C816        C824   1.386       .  A
C817        C831   1.411       .  A
C817        C825   1.388       .  A
C818        C826   1.387       .  A
C818        C829   1.419       .  A
C819        C827   1.386       .  A
C819        C830   1.417       .  A
C820        C821   1.377       .  A
C820        H832   1.082       .  S
C821        H833   1.082       .  S
C822        C823   1.377       .  A
C822        H834   1.082       .  S
C823        H835   1.082       .  S
C824        C825   1.374       .  A
C824        H836   1.082       .  S
C825        H837   1.082       .  S
C826        C827   1.378       .  A
C828        C920   1.462       .  S
C829        C913   1.459       .  S
C830        C985   1.462       .  S
C831        C992   1.445       .  S
N842        H874   1.036       .  S
N842        C847   1.352       .  A
N842        C846   1.355       .  A
N843        C850   1.352       .  A
N843        C851   1.348       .  A
N844        H875   1.035       .  S
N844        C849   1.351       .  A
N844        C848   1.347       .  A
N845        C852   1.348       .  A
N845        C853   1.352       .  A
C846        C854   1.385       .  A
C846        C862   1.414       .  A
C847        C863   1.415       .  A
C847        C855   1.388       .  A
C848        C856   1.391       .  A
C848        C865   1.410       .  A
C849        C864   1.407       .  A
C849        C857   1.385       .  A
C850        C862   1.411       .  A
C850        C858   1.386       .  A
C851        C865   1.410       .  A
C851        C859   1.388       .  A
C852        C860   1.388       .  A
C852        C863   1.411       .  A
C853        C861   1.385       .  A
C853        C864   1.409       .  A
C854        C855   1.377       .  A
C854        H866   1.082       .  S
C855        H867   1.082       .  S
C856        C857   1.375       .  A
C856        H868   1.083       .  S
C857        H869   1.083       .  S
C858        C859   1.373       .  A
C858        H870   1.082       .  S
C859        H871   1.082       .  S
C860        C861   1.371       .  A
C862       C1000   1.456       .  S
C863        C996   1.445       .  S
C864        C908   1.448       .  S
C865        C909   1.431       .  S
O876        C884   1.261       .  A
O876       Co896   1.978       .  S
O877        C885   1.268       .  A
O877       Co897   1.938       .  S
O878       C1918   1.272       .  A
O878       Co898   2.020       .  S
O879        C887   1.236       .  A
O879       Co899   1.910       .  S
O880        C886   1.265       .  A
O880       Co897   1.971       .  S
O881        C887   1.260       .  A
O881       Co896   2.013       .  S
O882        C885   1.280       .  A
O882      Co1931   2.044   1_455  S
O883        C884   1.273       .  A
O883       Co898   2.039       .  S
C884        C941   1.458       .  S
C885        C917   1.446       .  S
C886        C937   1.444       .  S
C886       O1910   1.272       .  A
C887        C912   1.413       .  S
O888        C901   1.265       .  A
O888       Co896   1.996       .  S
O889        C902   1.265       .  A
O889       Co897   2.013       .  S
O890        C903   1.256       .  A
O890       Co898   1.969       .  S
O891        C904   1.239       .  A
O891      Co1931   1.935   1_455  S
O892        C904   1.267       .  A
O892       Co897   2.058       .  S
O893        C903   1.261       .  A
O893       Co896   1.998       .  S
O894        C901   1.261       .  A
O894       Co899   1.974       .  S
O895       C1934   1.256       .  A
O895       Co898   1.972       .  S
Co896       O900   2.123       .  S
Co897      O1932   2.032   1_455  S
Co898       O900   2.067       .  S
Co899      O1914   2.043       .  S
Co899      O1923   1.935       .  S
Co899       O900   2.059       .  S
O900      Co1929   2.032       .  S
C901        C905   1.433       .  S
C902        C953   1.434       .  S
C902       O1927   1.256       .  A
C903        C960   1.431       .  S
C904        C916   1.445       .  S
C905        C906   1.205       .  T
C907        C908   1.205       .  T
C909        C910   1.194       .  T
C910        C911   1.392       .  S
C911        C912   1.193       .  T
C913        C914   1.212       .  T
C915        C916   1.212       .  T
C917        C918   1.214       .  T
C918        C919   1.425       .  S
C919        C920   1.214       .  T
C921        C922   1.200       .  T
C923        C924   1.200       .  T
C925        C926   1.216       .  T
C926        C927   1.429       .  S
C927        C928   1.217       .  T
C929        C930   1.218       .  T
C931        C932   1.217       .  T
C933        C934   1.205       .  T
C934        C935   1.412       .  S
C935        C936   1.206       .  T
C937        C938   1.212       .  T
C938        C939   1.423       .  S
C939        C940   1.213       .  T
C941        C942   1.219       .  T
C942        C943   1.434       .  S
C943        C944   1.219       .  T
C945        C946   1.213       .  T
C946        C947   1.422       .  S
C947        C948   1.212       .  T
C949        C950   1.208       .  T
C950        C951   1.415       .  S
C951        C952   1.208       .  T
C953        C954   1.205       .  T
C954        C955   1.412       .  S
C955        C956   1.206       .  T
C957        C958   1.204       .  T
C958        C959   1.409       .  S
C959        C960   1.204       .  T
C961        C962   1.208       .  T
C962        C963   1.416       .  S
C966        C967   1.416       .  S
C967        C968   1.208       .  T
C969        C970   1.218       .  T
C971        C972   1.218       .  T
C973        C974   1.205       .  T
C974        C975   1.410       .  S
C975        C976   1.205       .  T
C977        C978   1.201       .  T
C979        C980   1.200       .  T
C981        C982   1.213       .  T
C982        C983   1.424       .  S
C983        C984   1.214       .  T
C985        C986   1.214       .  T
C987        C988   1.213       .  T
C989        C990   1.202       .  T
C990        C991   1.406       .  S
C991        C992   1.203       .  T
C993        C994   1.202       .  T
C995        C996   1.203       .  T
C997        C998   1.210       .  T
C998        C999   1.419       .  S
C999       C1000   1.210       .  T
C1001      C1002   1.206       .  T
C1002      C1003   1.412       .  S
C1003      C1004   1.206       .  T
C1005      C1006   1.208       .  T
C1006      C1007   1.414       .  S
C1007      C1008   1.207       .  T
C1009      C1010   1.216       .  T
C1010      C1011   1.429       .  S
C1011      C1012   1.216       .  T
C1013      C1014   1.208       .  T
C1014      C1015   1.415       .  S
C1015      C1016   1.207       .  T
C1017      C1018   1.213       .  T
C1018      C1019   1.423       .  S
C1019      C1020   1.212       .  T
C1021      C1022   1.213       .  T
C1022      C1023   1.423       .  S
C1023      C1024   1.213       .  T
C1025      C1026   1.206       .  T
C1026      C1027   1.411       .  S
C1027      C1028   1.205       .  T
C1029      C1030   1.206       .  T
C1030      C1031   1.413       .  S
C1031      C1032   1.207       .  T
N1033      H1065   1.039       .  S
N1033      C1554   1.354       .  A
N1033      C1037   1.355       .  A
N1034      C1042   1.350       .  A
N1035      H1066   1.039       .  S
N1035      C1040   1.353   1_545  A
N1035      C1555   1.354   1_545  A
N1036      C1044   1.356       .  A
C1037      C1045   1.387       .  A
C1037      C1053   1.416       .  A
C1038      N1549   1.354       .  A
C1038      C1054   1.416       .  A
C1038      C1046   1.388       .  A
C1039      N1551   1.354       .  A
C1039      C1047   1.387       .  A
C1039      C1056   1.415       .  A
C1040      C1055   1.416   1_565  A
C1040      C1048   1.389       .  A
C1041      C1053   1.409       .  A
C1041      C1049   1.386       .  A
C1042      C1056   1.410       .  A
C1042      C1050   1.388       .  A
C1043      C1051   1.387       .  A
C1043      C1054   1.420       .  A
C1044      C1052   1.386       .  A
C1044      C1055   1.420       .  A
C1045      C1562   1.376       .  A
C1045      H1057   1.082       .  S
C1046      C1561   1.376   1_545  A
C1046      H1058   1.082   1_545  S
C1047      C1564   1.376       .  A
C1047      H1059   1.082       .  S
C1048      C1563   1.376       .  A
C1048      H1060   1.082       .  S
C1049      H1061   1.082       .  S
C1050      H1062   1.082       .  S
C1051      H1063   1.082       .  S
C1052      H1064   1.082       .  S
C1053      C1548   1.453       .  S
C1054      C1540   1.461       .  S
C1055      C1533   1.461       .  S
C1056      C1541   1.450       .  S
N1067      H1099   1.039       .  S
N1067      C1072   1.355       .  A
N1067      C1071   1.357       .  A
N1068      C1076   1.354   1_455  A
N1069      H1100   1.040       .  S
N1069      C1074   1.356       .  A
N1069      C1073   1.352       .  A
N1070      C1078   1.352       .  A
C1071      C1079   1.387       .  A
C1071      C1087   1.420       .  A
C1072      C1088   1.420       .  A
C1072      C1080   1.388       .  A
C1073      C1081   1.390       .  A
C1073      C1090   1.415       .  A
C1074      C1089   1.413       .  A
C1074      C1082   1.386       .  A
C1075      C1087   1.421       .  A
C1075      C1083   1.387       .  A
C1076      C1090   1.419       .  A
C1076      C1084   1.387       .  A
C1077      C1085   1.388       .  A
C1077      C1088   1.412       .  A
C1078      C1086   1.386       .  A
C1078      C1089   1.410       .  A
C1079      C1080   1.376       .  A
C1079      H1091   1.082       .  S
C1080      H1092   1.082       .  S
C1081      C1082   1.372       .  A
C1081      H1093   1.082       .  S
C1082      H1094   1.082       .  S
C1083      H1095   1.082       .  S
C1084      H1096   1.082       .  S
C1085      H1097   1.082       .  S
C1086      H1098   1.082       .  S
C1087      C1528   1.467       .  S
C1088      C1520   1.451       .  S
C1089      C1521   1.454       .  S
C1090      C1529   1.453       .  S
O1101      C1109   1.257       .  A
O1101     Co1121   1.962       .  S
O1102      C1110   1.293       .  A
O1102     Co1122   2.064       .  S
O1103      C1111   1.281       .  A
O1103     Co1123   2.040       .  S
O1104      C1112   1.254       .  A
O1104     Co1124   2.011       .  S
O1105      C1111   1.274       .  A
O1105     Co1122   1.980       .  S
O1106      C1112   1.254       .  A
O1106     Co1121   1.992       .  S
O1107      C1110   1.271       .  A
O1107     Co1124   1.917       .  S
O1108      C1109   1.269       .  A
O1108     Co1123   2.021       .  S
C1109      C1532   1.436       .  S
C1110      C1505   1.429       .  S
C1111      C1525   1.450       .  S
C1112      C1513   1.443       .  S
O1113      C1126   1.277       .  A
O1113     Co1121   2.031       .  S
O1114      C1127   1.256       .  A
O1114     Co1122   2.004       .  S
O1115      C1128   1.260       .  A
O1115     Co1123   1.969       .  S
O1116      C1129   1.265       .  A
O1116     Co1124   1.949       .  S
O1117      C1129   1.280       .  A
O1117     Co1122   2.078       .  S
O1118      C1128   1.269       .  A
O1118     Co1121   2.019       .  S
O1119      C1126   1.279       .  A
O1119     Co1124   1.995       .  S
O1120      C1127   1.250       .  A
O1120     Co1123   1.968       .  S
Co1121     O1125   2.069       .  S
Co1122     O1125   2.164       .  S
Co1123     O1125   2.048       .  S
Co1124     O1125   1.926       .  S
C1126      C1509   1.430       .  S
C1127      C1544   1.433       .  S
C1128      C1545   1.436       .  S
C1129      C1504   1.447       .  S
O1130      C1138   1.267       .  A
O1130     Co1150   2.013       .  S
O1131      C1139   1.292       .  A
O1131     Co1151   2.110       .  S
O1132      C1140   1.258       .  A
O1132     Co1152   1.975       .  S
O1133      C1141   1.264       .  A
O1133     Co1153   1.968       .  S
O1134      C1140   1.265       .  A
O1134     Co1151   2.010       .  S
O1135      C1141   1.281       .  A
O1135     Co1150   2.047       .  S
O1136      C1139   1.260       .  A
O1136     Co1153   1.895       .  S
O1137      C1138   1.260       .  A
O1137     Co1152   1.972       .  S
C1138      C1524   1.437       .  S
C1139      C1489   1.433       .  S
C1140      C1517   1.435       .  S
C1141      C1497   1.447       .  S
O1142      C1155   1.255       .  A
O1142     Co1150   1.975       .  S
O1143      C1156   1.270       .  A
O1143     Co1151   1.976       .  S
O1144      C1157   1.276       .  A
O1144     Co1152   2.036       .  S
O1145      C1158   1.292       .  A
O1145     Co1153   2.104       .  S
O1146      C1158   1.269       .  A
O1146     Co1151   1.921       .  S
O1147      C1157   1.262       .  A
O1147     Co1150   1.968       .  S
O1148      C1155   1.256       .  A
O1148     Co1153   1.992       .  S
O1149      C1156   1.277       .  A
O1149     Co1152   2.026       .  S
Co1150     O1154   2.049       .  S
Co1151     O1154   2.031       .  S
Co1152     O1154   2.035       .  S
Co1153     O1154   2.006       .  S
C1155      C1496   1.426       .  S
C1156      C1536   1.444       .  S
C1157      C1537   1.446       .  S
C1158      C1485   1.455       .  S
N1159      H1191   1.030       .  S
N1159      C1164   1.356   1_556  A
N1159      C1163   1.353       .  A
N1160      C1167   1.352       .  A
N1160      C1168   1.353       .  A
N1161      H1192   1.031       .  S
N1161      C1166   1.354   1_556  A
N1161      C1165   1.354       .  A
N1162      C1169   1.348       .  A
N1162      C1170   1.348       .  A
C1163      C1171   1.387       .  A
C1163      C1179   1.414       .  A
C1164      C1180   1.416       .  A
C1164      C1172   1.387   1_554  A
C1165      C1173   1.387       .  A
C1165      C1182   1.413       .  A
C1166      C1181   1.412       .  A
C1166      C1174   1.386       .  A
C1167      C1179   1.413       .  A
C1167      C1175   1.387       .  A
C1168      C1182   1.413       .  A
C1168      C1176   1.386       .  A
C1169      C1177   1.387       .  A
C1169      C1180   1.407       .  A
C1170      C1178   1.387       .  A
C1170      C1181   1.407       .  A
C1171      C1172   1.380       .  A
C1171      H1183   1.082       .  S
C1172      H1184   1.082   1_556  S
C1173      C1174   1.376   1_556  A
C1173      H1185   1.082       .  S
C1174      H1186   1.082       .  S
C1175      C1176   1.376       .  A
C1175      H1703   1.082       .  S
C1176      H1704   1.082       .  S
C1177      C1178   1.373       .  A
C1177      H1189   1.082       .  S
C1178      H1190   1.082       .  S
C1179      C1480   1.453       .  S
C1180      C1472   1.450       .  S
C1181      C1473   1.447       .  S
C1182      C1481   1.454       .  S
H1187      C1691   1.082       .  S
H1188      C1692   1.082       .  S
N1193      H1225   1.037       .  S
N1193      C1198   1.355   1_554  A
N1193      C1197   1.358       .  A
N1194      C1201   1.356       .  A
N1194      C1202   1.355       .  A
N1195      H1226   1.037   1_556  S
N1195      C1200   1.357       .  A
N1195      C1199   1.353   1_556  A
N1196      C1203   1.351       .  A
N1196      C1204   1.353       .  A
C1197      C1205   1.388       .  A
C1197      C1213   1.421       .  A
C1198      C1214   1.418       .  A
C1198      C1206   1.387       .  A
C1199      C1207   1.388       .  A
C1199      C1216   1.417       .  A
C1200      C1215   1.417       .  A
C1200      C1208   1.387       .  A
C1201      C1213   1.421       .  A
C1201      C1209   1.386       .  A
C1202      C1216   1.420       .  A
C1202      C1210   1.387       .  A
C1203      C1211   1.388       .  A
C1203      C1214   1.414       .  A
C1204      C1212   1.386       .  A
C1204      C1215   1.414       .  A
C1205      C1206   1.377   1_554  A
C1205      H1217   1.082       .  S
C1206      H1218   1.082       .  S
C1207      C1208   1.376   1_554  A
C1207      H1219   1.082       .  S
C1208      H1220   1.082       .  S
C1209      C1210   1.380       .  A
C1209      H1221   1.082       .  S
C1210      H1222   1.082       .  S
C1211      C1212   1.376       .  A
C1211      H1223   1.082       .  S
C1212      H1224   1.082       .  S
C1213      C1460   1.471       .  S
C1214      C1465   1.454       .  S
C1215      C1461   1.461       .  S
C1216      C1456   1.461       .  S
O1227      C1235   1.256       .  A
O1228      C1236   1.272       .  A
O1229      C1237   1.293       .  A
O1230      C1238   1.272       .  A
O1231      C1237   1.289       .  A
O1232      C1238   1.250       .  A
O1233      C1236   1.271       .  A
O1234      C1235   1.256       .  A
C1235      C1477   1.438       .  S
C1236      C1441   1.448       .  S
C1237      C1437   1.425       .  S
C1238      C1464   1.442       .  S
O1239      C1252   1.269       .  A
O1239     Co1247   2.010       .  S
O1240      C1253   1.249       .  A
O1240     Co1248   2.047       .  S
O1241      C1254   1.276       .  A
O1241     Co1249   2.025       .  S
O1242      C1255   1.262       .  A
O1242     Co1250   1.977       .  S
O1243      C1255   1.268       .  A
O1243     Co1248   2.011       .  S
O1244      C1254   1.261       .  A
O1244     Co1247   1.958       .  S
O1245      C1252   1.263       .  A
O1245     Co1250   1.973       .  S
O1246      C1253   1.232       .  A
O1246     Co1249   1.978       .  S
Co1247     O1251   2.056       .  S
Co1248     O1251   2.084       .  S
Co1249     O1251   2.018       .  S
Co1250     O1251   2.053       .  S
C1252      C1468   1.439       .  S
C1253      C1448   1.452       .  S
C1254      C1484   1.437       .  S
C1255      C1449   1.434       .  S
N1256      H1288   1.035       .  S
N1256      C1261   1.351       .  A
N1256      C1260   1.358       .  A
N1257      C1264   1.357       .  A
N1257      C1265   1.351       .  A
N1258      H1289   1.035       .  S
N1258      C1263   1.360       .  A
N1258      C1262   1.353       .  A
N1259      C1266   1.350       .  A
N1259      C1267   1.355       .  A
C1260      C1268   1.385       .  A
C1260      C1276   1.414       .  A
C1261      C1277   1.417       .  A
C1261      C1269   1.391       .  A
C1262      C1270   1.389       .  A
C1262      C1279   1.420       .  A
C1263      C1278   1.420       .  A
C1263      C1271   1.385       .  A
C1264      C1276   1.415       .  A
C1264      C1272   1.384       .  A
C1265      C1279   1.419       .  A
C1265      C1273   1.390       .  A
C1266      C1274   1.388       .  A
C1266      C1277   1.415       .  A
C1267      C1275   1.386       .  A
C1267      C1278   1.416       .  A
C1268      C1269   1.374       .  A
C1268      H1280   1.082       .  S
C1269      H1281   1.082       .  S
C1270      C1271   1.377       .  A
C1270      H1282   1.082       .  S
C1271      H1283   1.082       .  S
C1272      C1273   1.374       .  A
C1272      H1284   1.082       .  S
C1273      H1285   1.082       .  S
C1274      C1275   1.375       .  A
C1274      H1802   1.082       .  S
C1275      H1803   1.082       .  S
C1276      C1444   1.467       .  S
C1277      C1440   1.442       .  S
C1278      C1488   1.470       .  S
C1279      C1492   1.450       .  S
H1286      C1790   1.082       .  S
H1287      C1791   1.082       .  S
N1290      H1322   1.037       .  S
N1290      C1295   1.351       .  A
N1290      C1294   1.356       .  A
N1291      C1298   1.355       .  A
N1291      C1299   1.351       .  A
N1292      H1323   1.037       .  S
N1292      C1297   1.360       .  A
N1292      C1296   1.354       .  A
N1293      C1300   1.350       .  A
N1293      C1301   1.354       .  A
C1294      C1302   1.385       .  A
C1294      C1310   1.414       .  A
C1295      C1311   1.416       .  A
C1295      C1303   1.390       .  A
C1296      C1304   1.389       .  A
C1296      C1313   1.421       .  A
C1297      C1312   1.422       .  A
C1297      C1305   1.386       .  A
C1298      C1310   1.413       .  A
C1298      C1306   1.384       .  A
C1299      C1313   1.416       .  A
C1299      C1307   1.389       .  A
C1300      C1308   1.388       .  A
C1300      C1311   1.412       .  A
C1301      C1309   1.386       .  A
C1301      C1312   1.414       .  A
C1302      C1303   1.376       .  A
C1302      H1314   1.082       .  S
C1303      H1315   1.082       .  S
C1304      C1305   1.381       .  A
C1304      H1316   1.082       .  S
C1305      H1317   1.082       .  S
C1306      C1307   1.372       .  A
C1306      H1318   1.082       .  S
C1307      H1319   1.082       .  S
C1308      C1309   1.372       .  A
C1308      H1836   1.082       .  S
C1309      H1837   1.082       .  S
C1310      C1500   1.462       .  S
C1311      C1493   1.443       .  S
C1312      C1445   1.469       .  S
C1313      C1452   1.450       .  S
H1320      C1824   1.082   1_545  S
H1321      C1825   1.082       .  S
N1324      H1356   1.039       .  S
N1324      C1329   1.354       .  A
N1324      C1328   1.358       .  A
N1325      C1332   1.353       .  A
N1325      C1333   1.349       .  A
N1326      H1357   1.038       .  S
N1326      C1331   1.355       .  A
N1326      C1330   1.352       .  A
N1327      C1334   1.353       .  A
N1327      C1335   1.355       .  A
C1328      C1336   1.385       .  A
C1328      C1344   1.416       .  A
C1329      C1345   1.418       .  A
C1329      C1337   1.389       .  A
C1330      C1338   1.388       .  A
C1330      C1347   1.414       .  A
C1331      C1346   1.415       .  A
C1331      C1339   1.387       .  A
C1332      C1344   1.412       .  A
C1332      C1340   1.386       .  A
C1333      C1347   1.411       .  A
C1333      C1341   1.388       .  A
C1334      C1342   1.387       .  A
C1334      C1345   1.419       .  A
C1335      C1343   1.386       .  A
C1335      C1346   1.417       .  A
C1336      C1337   1.377       .  A
C1336      H1348   1.082       .  S
C1337      H1349   1.082       .  S
C1338      C1339   1.377       .  A
C1338      H1350   1.082       .  S
C1339      H1351   1.082       .  S
C1340      C1341   1.374       .  A
C1340      H1352   1.082       .  S
C1341      H1353   1.082       .  S
C1342      C1343   1.378       .  A
C1342      H1870   1.082   1_545  S
C1343      H1871   1.082   1_545  S
C1344      C1436   1.462       .  S
C1345      C1429   1.459       .  S
C1346      C1501   1.462       .  S
C1347      C1508   1.445       .  S
H1354      C1858   1.082       .  S
H1355      C1859   1.082       .  S
N1358      H1390   1.036       .  S
N1358      C1363   1.352       .  A
N1358      C1362   1.355       .  A
N1359      C1366   1.352       .  A
N1359      C1367   1.348       .  A
N1360      H1391   1.035       .  S
N1360      C1365   1.351       .  A
N1360      C1364   1.347       .  A
N1361      C1368   1.348       .  A
N1361      C1369   1.352       .  A
C1362      C1370   1.385       .  A
C1362      C1378   1.414       .  A
C1363      C1379   1.415       .  A
C1363      C1371   1.388       .  A
C1364      C1372   1.391       .  A
C1364      C1381   1.410       .  A
C1365      C1380   1.407       .  A
C1365      C1373   1.385       .  A
C1366      C1378   1.411       .  A
C1366      C1374   1.386       .  A
C1367      C1381   1.410       .  A
C1367      C1375   1.388       .  A
C1368      C1376   1.388       .  A
C1368      C1379   1.411       .  A
C1369      C1377   1.385       .  A
C1369      C1380   1.409       .  A
C1370      C1371   1.377       .  A
C1370      H1382   1.082       .  S
C1371      H1383   1.082       .  S
C1372      C1373   1.375       .  A
C1372      H1384   1.083       .  S
C1373      H1385   1.083       .  S
C1374      C1375   1.373       .  A
C1374      H1386   1.082       .  S
C1375      H1387   1.082       .  S
C1376      C1377   1.371       .  A
C1376      H1904   1.082   1_545  S
C1377      H1905   1.082   1_545  S
C1378      C1516   1.456       .  S
C1379      C1512   1.445       .  S
C1380      C1424   1.448       .  S
C1381      C1425   1.431       .  S
H1388      C1892   1.082       .  S
H1389      C1893   1.082       .  S
O1392      C1400   1.261       .  A
O1392     Co1412   1.978       .  S
O1393      C1401   1.268       .  A
O1393     Co1413   1.938       .  S
O1394     Co1414   2.020   1_455  S
O1395      C1403   1.236       .  A
O1395     Co1415   1.910       .  S
O1396      C1402   1.265       .  A
O1396     Co1413   1.971       .  S
O1397      C1403   1.260       .  A
O1397     Co1412   2.013       .  S
O1398      C1401   1.280       .  A
O1399      C1400   1.273       .  A
O1399     Co1414   2.039       .  S
C1400      C1457   1.457       .  S
C1401      C1433   1.446       .  S
C1402      C1453   1.444       .  S
C1403      C1428   1.413       .  S
O1404      C1417   1.265       .  A
O1404     Co1412   1.996       .  S
O1405      C1418   1.265       .  A
O1405     Co1413   2.013       .  S
O1406      C1419   1.256       .  A
O1406     Co1414   1.969       .  S
O1407      C1420   1.239       .  A
O1408      C1420   1.267       .  A
O1408     Co1413   2.058       .  S
O1409      C1419   1.261       .  A
O1409     Co1412   1.998       .  S
O1410      C1417   1.261       .  A
O1410     Co1415   1.974       .  S
O1411     Co1414   1.972   1_455  S
Co1412     O1416   2.123       .  S
Co1414     O1416   2.067       .  S
Co1415     O1416   2.059       .  S
C1417      C1421   1.433       .  S
C1418      C1469   1.434       .  S
C1419      C1476   1.431       .  S
C1420      C1432   1.445       .  S
C1421      C1422   1.205       .  T
C1422      C1939   1.410       .  S
C1423      C1424   1.205       .  T
C1423      C1938   1.410   1_545  S
C1425      C1426   1.194       .  T
C1426      C1427   1.392       .  S
C1427      C1428   1.193       .  T
C1429      C1430   1.212       .  T
C1430      C1947   1.423   1_545  S
C1431      C1432   1.212       .  T
C1431      C1946   1.423       .  S
C1433      C1434   1.214       .  T
C1434      C1435   1.425       .  S
C1435      C1436   1.214       .  T
C1437      C1438   1.200   1_545  T
C1438      C1955   1.402       .  S
C1439      C1440   1.200       .  T
C1439      C1954   1.402       .  S
C1441      C1442   1.216       .  T
C1442      C1443   1.429       .  S
C1443      C1444   1.217       .  T
C1445      C1446   1.218       .  T
C1446      C1963   1.431       .  S
C1447      C1448   1.217       .  T
C1447      C1962   1.431   1_545  S
C1449      C1450   1.205       .  T
C1450      C1451   1.412       .  S
C1451      C1452   1.206       .  T
C1453      C1454   1.212       .  T
C1454      C1455   1.423       .  S
C1455      C1456   1.213       .  T
C1457      C1458   1.219       .  T
C1458      C1459   1.434       .  S
C1459      C1460   1.219       .  T
C1461      C1462   1.213       .  T
C1462      C1463   1.422       .  S
C1463      C1464   1.212       .  T
C1465      C1466   1.208       .  T
C1466      C1467   1.415       .  S
C1467      C1468   1.208       .  T
C1469      C1470   1.205       .  T
C1470      C1471   1.412       .  S
C1471      C1472   1.206       .  T
C1473      C1474   1.204       .  T
C1474      C1475   1.409       .  S
C1475      C1476   1.204       .  T
C1477      C1478   1.208       .  T
C1478      C1479   1.416       .  S
C1479      C1996   1.208       .  T
C1480      C1995   1.208       .  T
C1481      C1998   1.209       .  T
C1482      C1997   1.209       .  T
C1482      C1483   1.416       .  S
C1483      C1484   1.208       .  T
C1485      C1486   1.218       .  T
C1486      C2003   1.432   1_545  S
C1487      C1488   1.218       .  T
C1487      C2002   1.432       .  S
C1489      C1490   1.205       .  T
C1490      C1491   1.410       .  S
C1491      C1492   1.205       .  T
C1493      C1494   1.201       .  T
C1494      C2011   1.403       .  S
C1495      C1496   1.200       .  T
C1495      C2010   1.403   1_545  S
C1497      C1498   1.213       .  T
C1498      C1499   1.424       .  S
C1499      C1500   1.214       .  T
C1501      C1502   1.214       .  T
C1502      C2019   1.425   1_545  S
C1503      C1504   1.213       .  T
C1503      C2018   1.425       .  S
C1505      C1506   1.202       .  T
C1506      C1507   1.406       .  S
C1507      C1508   1.203       .  T
C1509      C1510   1.202       .  T
C1510      C2027   1.406       .  S
C1511      C1512   1.203       .  T
C1511      C2026   1.406   1_545  S
C1513      C1514   1.210       .  T
C1514      C1515   1.419       .  S
C1515      C1516   1.210       .  T
C1517      C1518   1.206       .  T
C1518      C1519   1.412       .  S
C1519      C1520   1.206       .  T
C1521      C1522   1.208       .  T
C1522      C1523   1.414       .  S
C1523      C1524   1.207       .  T
C1525      C1526   1.216       .  T
C1526      C1527   1.429       .  S
C1527      C1528   1.216       .  T
C1529      C1530   1.208       .  T
C1530      C1531   1.415       .  S
C1531      C1532   1.207       .  T
C1533      C1534   1.213       .  T
C1534      C1535   1.423       .  S
C1535      C1536   1.212       .  T
C1537      C1538   1.213       .  T
C1538      C1539   1.423       .  S
C1539      C1540   1.213       .  T
C1541      C1542   1.206       .  T
C1542      C1543   1.411       .  S
C1543      C1544   1.205       .  T
C1545      C1546   1.206       .  T
C1546      C1547   1.413       .  S
C1547      C1548   1.207       .  T
N1549      H1581   1.039       .  S
N1549      C1553   1.355       .  A
N1550      C1558   1.350       .  A
N1551      H1582   1.039       .  S
N1551      C1556   1.353       .  A
N1552      C1560   1.356       .  A
C1553      C1561   1.387   1_545  A
C1553      C1569   1.416       .  A
C1554      C1570   1.416       .  A
C1554      C1562   1.388       .  A
C1555      C1563   1.387       .  A
C1555      C1572   1.415       .  A
C1556      C1571   1.416       .  A
C1556      C1564   1.389       .  A
C1557      C1569   1.409       .  A
C1557      C1565   1.386       .  A
C1558      C1572   1.410       .  A
C1558      C1566   1.388   1_565  A
C1559      C1567   1.387       .  A
C1559      C1570   1.420       .  A
C1560      C1568   1.386       .  A
C1560      C1571   1.420       .  A
C1561      H1573   1.082       .  S
C1562      H1574   1.082       .  S
C1563      H1575   1.082       .  S
C1564      H1576   1.082       .  S
C1565      H1577   1.082       .  S
C1566      H1578   1.082       .  S
C1567      H1579   1.082       .  S
C1568      H1580   1.082       .  S
C1569      C2064   1.453   1_545  S
C1570      C2056   1.461       .  S
C1571      C2049   1.461       .  S
C1572      C2057   1.450       .  S
N1583      H1615   1.039       .  S
N1583      C1588   1.355       .  A
N1583      C1587   1.357       .  A
N1584      C1592   1.354   1_455  A
N1585      H1616   1.040       .  S
N1585      C1590   1.356       .  A
N1585      C1589   1.352       .  A
N1586      C1594   1.352       .  A
C1587      C1595   1.387       .  A
C1587      C1603   1.420       .  A
C1588      C1604   1.420       .  A
C1588      C1596   1.388       .  A
C1589      C1597   1.390       .  A
C1589      C1606   1.415       .  A
C1590      C1605   1.413       .  A
C1590      C1598   1.386       .  A
C1591      C1603   1.421       .  A
C1591      C1599   1.387       .  A
C1592      C1606   1.419       .  A
C1592      C1600   1.387       .  A
C1593      C1601   1.388       .  A
C1593      C1604   1.412       .  A
C1594      C1602   1.386       .  A
C1594      C1605   1.410       .  A
C1595      C1596   1.376       .  A
C1595      H1607   1.082       .  S
C1596      H1608   1.082       .  S
C1597      C1598   1.372       .  A
C1597      H1609   1.082       .  S
C1598      H1610   1.082       .  S
C1599      H1611   1.082       .  S
C1600      H1612   1.082       .  S
C1601      H1613   1.082       .  S
C1602      H1614   1.082       .  S
C1603      C2044   1.467       .  S
C1604      C2036   1.451       .  S
C1605      C2037   1.454       .  S
C1606      C2045   1.453       .  S
O1617      C1625   1.257       .  A
O1617     Co1637   1.962       .  S
O1618      C1626   1.293       .  A
O1618     Co1638   2.064       .  S
O1619      C1627   1.281       .  A
O1619     Co1639   2.040       .  S
O1620      C1628   1.254       .  A
O1620     Co1640   2.011       .  S
O1621      C1627   1.274       .  A
O1621     Co1638   1.980       .  S
O1622      C1628   1.254       .  A
O1622     Co1637   1.992       .  S
O1623      C1626   1.271       .  A
O1623     Co1640   1.917       .  S
O1624      C1625   1.269       .  A
O1624     Co1639   2.021       .  S
C1625      C2048   1.436       .  S
C1626      C2021   1.429       .  S
C1627      C2041   1.450       .  S
C1628      C2029   1.443       .  S
O1629      C1642   1.277       .  A
O1629     Co1637   2.031       .  S
O1630      C1643   1.256       .  A
O1630     Co1638   2.004       .  S
O1631      C1644   1.260       .  A
O1631     Co1639   1.969       .  S
O1632      C1645   1.265       .  A
O1632     Co1640   1.949       .  S
O1633      C1645   1.280       .  A
O1633     Co1638   2.078       .  S
O1634      C1644   1.269       .  A
O1634     Co1637   2.019       .  S
O1635      C1642   1.279       .  A
O1635     Co1640   1.995       .  S
O1636      C1643   1.250       .  A
O1636     Co1639   1.968       .  S
Co1637     O1641   2.069       .  S
Co1638     O1641   2.164       .  S
Co1639     O1641   2.049       .  S
Co1640     O1641   1.926       .  S
C1642      C2025   1.430       .  S
C1643      C2060   1.433       .  S
C1644      C2061   1.436       .  S
C1645      C2020   1.447       .  S
O1646      C1654   1.267       .  A
O1646     Co1666   2.013       .  S
O1647      C1655   1.292       .  A
O1647     Co1667   2.110       .  S
O1648      C1656   1.258       .  A
O1648     Co1668   1.975       .  S
O1649      C1657   1.264       .  A
O1649     Co1669   1.968       .  S
O1650      C1656   1.265       .  A
O1650     Co1667   2.010       .  S
O1651      C1657   1.281       .  A
O1651     Co1666   2.047       .  S
O1652      C1655   1.260       .  A
O1652     Co1669   1.895       .  S
O1653      C1654   1.260       .  A
O1653     Co1668   1.972       .  S
C1654      C2040   1.437       .  S
C1655      C2005   1.433       .  S
C1656      C2033   1.435       .  S
C1657      C2013   1.447       .  S
O1658      C1671   1.255       .  A
O1658     Co1666   1.975       .  S
O1659      C1672   1.270       .  A
O1659     Co1667   1.976       .  S
O1660      C1673   1.276       .  A
O1660     Co1668   2.036       .  S
O1661      C1674   1.292       .  A
O1661     Co1669   2.104       .  S
O1662      C1674   1.269       .  A
O1662     Co1667   1.921       .  S
O1663      C1673   1.262       .  A
O1663     Co1666   1.968       .  S
O1664      C1671   1.256       .  A
O1664     Co1669   1.992       .  S
O1665      C1672   1.277       .  A
O1665     Co1668   2.026       .  S
Co1666     O1670   2.049       .  S
Co1667     O1670   2.031       .  S
Co1668     O1670   2.035       .  S
Co1669     O1670   2.006       .  S
C1671      C2012   1.426       .  S
C1672      C2052   1.444       .  S
C1673      C2053   1.446       .  S
C1674      C2001   1.455       .  S
N1675      H1707   1.030       .  S
N1675      C1680   1.356   1_546  A
N1675      C1679   1.353       .  A
N1676      C1683   1.352       .  A
N1676      C1684   1.353       .  A
N1677      H1708   1.031   1_565  S
N1677      C1682   1.354   1_556  A
N1677      C1681   1.354       .  A
N1678      C1685   1.348   1_565  A
N1678      C1686   1.348       .  A
C1679      C1687   1.387   1_545  A
C1679      C1695   1.414       .  A
C1680      C1696   1.416       .  A
C1680      C1688   1.387   1_554  A
C1681      C1689   1.387       .  A
C1681      C1698   1.413   1_565  A
C1682      C1697   1.412       .  A
C1682      C1690   1.386       .  A
C1683      C1695   1.413       .  A
C1683      C1691   1.387       .  A
C1684      C1698   1.413       .  A
C1684      C1692   1.386       .  A
C1685      C1693   1.387       .  A
C1685      C1696   1.407   1_545  A
C1686      C1694   1.387   1_565  A
C1686      C1697   1.407       .  A
C1687      C1688   1.380       .  A
C1687      H1699   1.082       .  S
C1688      H1700   1.082   1_556  S
C1689      C1690   1.376   1_556  A
C1689      H1701   1.082       .  S
C1690      H1702   1.082       .  S
C1691      C1692   1.376       .  A
C1693      C1694   1.373       .  A
C1693      H1705   1.082       .  S
C1694      H1706   1.082       .  S
C1695      C1996   1.453       .  S
C1696      C1988   1.450       .  S
C1697      C1989   1.447       .  S
C1698      C1997   1.454       .  S
N1709      H1741   1.037       .  S
N1709      C1714   1.355   1_554  A
N1709      C1713   1.358       .  A
N1710      C1717   1.356       .  A
N1710      C1718   1.355       .  A
N1711      H1742   1.037   1_556  S
N1711      C1716   1.357       .  A
N1711      C1715   1.353   1_556  A
N1712      C1719   1.351       .  A
N1712      C1720   1.353       .  A
C1713      C1721   1.388       .  A
C1713      C1729   1.421       .  A
C1714      C1730   1.418       .  A
C1714      C1722   1.387       .  A
C1715      C1723   1.388       .  A
C1715      C1732   1.417       .  A
C1716      C1731   1.417       .  A
C1716      C1724   1.387       .  A
C1717      C1729   1.421       .  A
C1717      C1725   1.386       .  A
C1718      C1732   1.420       .  A
C1718      C1726   1.387       .  A
C1719      C1727   1.388       .  A
C1719      C1730   1.414       .  A
C1720      C1728   1.386       .  A
C1720      C1731   1.414       .  A
C1721      C1722   1.377   1_554  A
C1721      H1733   1.082       .  S
C1722      H1734   1.082       .  S
C1723      C1724   1.376   1_554  A
C1723      H1735   1.082       .  S
C1724      H1736   1.082       .  S
C1725      C1726   1.380       .  A
C1725      H1737   1.082       .  S
C1726      H1738   1.082       .  S
C1727      C1728   1.376       .  A
C1727      H1739   1.082       .  S
C1728      H1740   1.082       .  S
C1729      C1976   1.471       .  S
C1730      C1981   1.454       .  S
C1731      C1977   1.461       .  S
C1732      C1972   1.461       .  S
O1743      C1751   1.256       .  A
O1744      C1752   1.272       .  A
O1745      C1753   1.293       .  A
O1746      C1754   1.272       .  A
O1747      C1753   1.289       .  A
O1748      C1754   1.250       .  A
O1749      C1752   1.271       .  A
O1750      C1751   1.256       .  A
C1751      C1993   1.438       .  S
C1752      C1957   1.448       .  S
C1753      C1953   1.425       .  S
C1754      C1980   1.442       .  S
O1755      C1768   1.269       .  A
O1755     Co1763   2.010       .  S
O1756      C1769   1.249       .  A
O1756     Co1764   2.047       .  S
O1757      C1770   1.276       .  A
O1757     Co1765   2.024       .  S
O1758      C1771   1.262       .  A
O1758     Co1766   1.977       .  S
O1759      C1771   1.268       .  A
O1759     Co1764   2.011       .  S
O1760      C1770   1.261       .  A
O1760     Co1763   1.958       .  S
O1761      C1768   1.263       .  A
O1761     Co1766   1.973       .  S
O1762      C1769   1.232       .  A
O1762     Co1765   1.978       .  S
Co1763     O1767   2.056       .  S
Co1764     O1767   2.084       .  S
Co1765     O1767   2.018       .  S
Co1766     O1767   2.053       .  S
C1768      C1984   1.439       .  S
C1769      C1964   1.452       .  S
C1770      C2000   1.437       .  S
C1771      C1965   1.434       .  S
N1772      H1804   1.036       .  S
N1772      C1777   1.351       .  A
N1772      C1776   1.358       .  A
N1773      C1780   1.357       .  A
N1773      C1781   1.351       .  A
N1774      H1805   1.035       .  S
N1774      C1779   1.360       .  A
N1774      C1778   1.353       .  A
N1775      C1782   1.350       .  A
N1775      C1783   1.355       .  A
C1776      C1784   1.385       .  A
C1776      C1792   1.414       .  A
C1777      C1793   1.417       .  A
C1777      C1785   1.391       .  A
C1778      C1786   1.389       .  A
C1778      C1795   1.420       .  A
C1779      C1794   1.420       .  A
C1779      C1787   1.385       .  A
C1780      C1792   1.415       .  A
C1780      C1788   1.384       .  A
C1781      C1795   1.419       .  A
C1781      C1789   1.390       .  A
C1782      C1790   1.388       .  A
C1782      C1793   1.415       .  A
C1783      C1791   1.386       .  A
C1783      C1794   1.416       .  A
C1784      C1785   1.374       .  A
C1784      H1796   1.082       .  S
C1785      H1797   1.082       .  S
C1786      C1787   1.377       .  A
C1786      H1798   1.082       .  S
C1787      H1799   1.082       .  S
C1788      C1789   1.374       .  A
C1788      H1800   1.082       .  S
C1789      H1801   1.082       .  S
C1790      C1791   1.375       .  A
C1792      C1960   1.467       .  S
C1793      C1956   1.442       .  S
C1794      C2004   1.470       .  S
C1795      C2008   1.450       .  S
N1806      H1838   1.037       .  S
N1806      C1811   1.351       .  A
N1806      C1810   1.356       .  A
N1807      C1814   1.355       .  A
N1807      C1815   1.351       .  A
N1808      H1839   1.037       .  S
N1808      C1813   1.360       .  A
N1808      C1812   1.354       .  A
N1809      C1816   1.350       .  A
N1809      C1817   1.354       .  A
C1810      C1818   1.385       .  A
C1810      C1826   1.414       .  A
C1811      C1827   1.416       .  A
C1811      C1819   1.390       .  A
C1812      C1820   1.389       .  A
C1812      C1829   1.421       .  A
C1813      C1828   1.422       .  A
C1813      C1821   1.386       .  A
C1814      C1826   1.413       .  A
C1814      C1822   1.384       .  A
C1815      C1829   1.416       .  A
C1815      C1823   1.389       .  A
C1816      C1824   1.388       .  A
C1816      C1827   1.412       .  A
C1817      C1825   1.386       .  A
C1817      C1828   1.414       .  A
C1818      C1819   1.376       .  A
C1818      H1830   1.082       .  S
C1819      H1831   1.082       .  S
C1820      C1821   1.381       .  A
C1820      H1832   1.082       .  S
C1821      H1833   1.082       .  S
C1822      C1823   1.372       .  A
C1822      H1834   1.082       .  S
C1823      H1835   1.082       .  S
C1824      C1825   1.372       .  A
C1826      C2016   1.462       .  S
C1827      C2009   1.443       .  S
C1828      C1961   1.469       .  S
C1829      C1968   1.450       .  S
N1840      H1872   1.039       .  S
N1840      C1845   1.354       .  A
N1840      C1844   1.358       .  A
N1841      C1848   1.353       .  A
N1841      C1849   1.349       .  A
N1842      H1873   1.038       .  S
N1842      C1847   1.355       .  A
N1842      C1846   1.352       .  A
N1843      C1850   1.353       .  A
N1843      C1851   1.355       .  A
C1844      C1852   1.385       .  A
C1844      C1860   1.416       .  A
C1845      C1861   1.418       .  A
C1845      C1853   1.389       .  A
C1846      C1854   1.388       .  A
C1846      C1863   1.414       .  A
C1847      C1862   1.415       .  A
C1847      C1855   1.387       .  A
C1848      C1860   1.412       .  A
C1848      C1856   1.386       .  A
C1849      C1863   1.411       .  A
C1849      C1857   1.388       .  A
C1850      C1858   1.387       .  A
C1850      C1861   1.419       .  A
C1851      C1859   1.386       .  A
C1851      C1862   1.417       .  A
C1852      C1853   1.377       .  A
C1852      H1864   1.082       .  S
C1853      H1865   1.082       .  S
C1854      C1855   1.377       .  A
C1854      H1866   1.082       .  S
C1855      H1867   1.082       .  S
C1856      C1857   1.374       .  A
C1856      H1868   1.082       .  S
C1857      H1869   1.082       .  S
C1858      C1859   1.378       .  A
C1860      C1952   1.462       .  S
C1861      C1945   1.459       .  S
C1862      C2017   1.462       .  S
C1863      C2024   1.445       .  S
N1874      H1906   1.036       .  S
N1874      C1879   1.352       .  A
N1874      C1878   1.355       .  A
N1875      C1882   1.352       .  A
N1875      C1883   1.348       .  A
N1876      H1907   1.035       .  S
N1876      C1881   1.351       .  A
N1876      C1880   1.347       .  A
N1877      C1884   1.348       .  A
N1877      C1885   1.352       .  A
C1878      C1886   1.385       .  A
C1878      C1894   1.414       .  A
C1879      C1895   1.415       .  A
C1879      C1887   1.388       .  A
C1880      C1888   1.391       .  A
C1880      C1897   1.410       .  A
C1881      C1896   1.407       .  A
C1881      C1889   1.385       .  A
C1882      C1894   1.411       .  A
C1882      C1890   1.386       .  A
C1883      C1897   1.410       .  A
C1883      C1891   1.388       .  A
C1884      C1892   1.388       .  A
C1884      C1895   1.411       .  A
C1885      C1893   1.385       .  A
C1885      C1896   1.409       .  A
C1886      C1887   1.377       .  A
C1886      H1898   1.082       .  S
C1887      H1899   1.082       .  S
C1888      C1889   1.375       .  A
C1888      H1900   1.083       .  S
C1889      H1901   1.083       .  S
C1890      C1891   1.373       .  A
C1890      H1902   1.082       .  S
C1891      H1903   1.082       .  S
C1892      C1893   1.371       .  A
C1894      C2032   1.456       .  S
C1895      C2028   1.445       .  S
C1896      C1940   1.448       .  S
C1897      C1941   1.431       .  S
O1908      C1916   1.261       .  A
O1908     Co1928   1.978       .  S
O1909      C1917   1.268       .  A
O1909     Co1929   1.938       .  S
O1910     Co1930   2.020   1_455  S
O1911      C1919   1.236       .  A
O1911     Co1931   1.911       .  S
O1912      C1918   1.265       .  A
O1912     Co1929   1.971       .  S
O1913      C1919   1.260       .  A
O1913     Co1928   2.013       .  S
O1914      C1917   1.280       .  A
O1915      C1916   1.273       .  A
O1915     Co1930   2.039       .  S
C1916      C1973   1.458       .  S
C1917      C1949   1.446       .  S
C1918      C1969   1.444       .  S
C1919      C1944   1.413       .  S
O1920      C1933   1.265       .  A
O1920     Co1928   1.996       .  S
O1921      C1934   1.265       .  A
O1921     Co1929   2.013       .  S
O1922      C1935   1.256       .  A
O1922     Co1930   1.969       .  S
O1923      C1936   1.239       .  A
O1924      C1936   1.267       .  A
O1924     Co1929   2.058       .  S
O1925      C1935   1.261       .  A
O1925     Co1928   1.998       .  S
O1926      C1933   1.261       .  A
O1926     Co1931   1.974       .  S
O1927     Co1930   1.972   1_455  S
Co1928     O1932   2.123       .  S
Co1930     O1932   2.067       .  S
Co1931     O1932   2.059       .  S
C1933      C1937   1.433       .  S
C1934      C1985   1.434       .  S
C1935      C1992   1.431       .  S
C1936      C1948   1.445       .  S
C1937      C1938   1.205       .  T
C1939      C1940   1.205       .  T
C1941      C1942   1.194       .  T
C1942      C1943   1.392       .  S
C1943      C1944   1.193       .  T
C1945      C1946   1.212       .  T
C1947      C1948   1.212       .  T
C1949      C1950   1.214       .  T
C1950      C1951   1.425       .  S
C1951      C1952   1.214       .  T
C1953      C1954   1.200       .  T
C1955      C1956   1.200       .  T
C1957      C1958   1.216       .  T
C1958      C1959   1.429       .  S
C1959      C1960   1.217       .  T
C1961      C1962   1.218       .  T
C1963      C1964   1.217       .  T
C1965      C1966   1.205       .  T
C1966      C1967   1.412       .  S
C1967      C1968   1.206       .  T
C1969      C1970   1.212       .  T
C1970      C1971   1.423       .  S
C1971      C1972   1.213       .  T
C1973      C1974   1.219       .  T
C1974      C1975   1.434       .  S
C1975      C1976   1.219       .  T
C1977      C1978   1.213       .  T
C1978      C1979   1.422       .  S
C1979      C1980   1.212       .  T
C1981      C1982   1.208       .  T
C1982      C1983   1.415       .  S
C1983      C1984   1.208       .  T
C1985      C1986   1.206       .  T
C1986      C1987   1.412       .  S
C1987      C1988   1.206       .  T
C1989      C1990   1.204       .  T
C1990      C1991   1.409       .  S
C1991      C1992   1.204       .  T
C1993      C1994   1.208       .  T
C1994      C1995   1.416       .  S
C1998      C1999   1.416       .  S
C1999      C2000   1.208       .  T
C2001      C2002   1.218       .  T
C2003      C2004   1.218       .  T
C2005      C2006   1.205       .  T
C2006      C2007   1.410       .  S
C2007      C2008   1.205       .  T
C2009      C2010   1.201       .  T
C2011      C2012   1.200       .  T
C2013      C2014   1.213       .  T
C2014      C2015   1.424       .  S
C2015      C2016   1.214       .  T
C2017      C2018   1.214       .  T
C2019      C2020   1.213       .  T
C2021      C2022   1.202       .  T
C2022      C2023   1.406       .  S
C2023      C2024   1.203       .  T
C2025      C2026   1.202       .  T
C2027      C2028   1.203       .  T
C2029      C2030   1.210       .  T
C2030      C2031   1.419       .  S
C2031      C2032   1.210       .  T
C2033      C2034   1.206       .  T
C2034      C2035   1.412       .  S
C2035      C2036   1.206       .  T
C2037      C2038   1.208       .  T
C2038      C2039   1.414       .  S
C2039      C2040   1.207       .  T
C2041      C2042   1.216       .  T
C2042      C2043   1.429       .  S
C2043      C2044   1.216       .  T
C2045      C2046   1.208       .  T
C2046      C2047   1.415       .  S
C2047      C2048   1.207       .  T
C2049      C2050   1.213       .  T
C2050      C2051   1.423       .  S
C2051      C2052   1.212       .  T
C2053      C2054   1.213       .  T
C2054      C2055   1.423       .  S
C2055      C2056   1.213       .  T
C2057      C2058   1.206       .  T
C2058      C2059   1.411       .  S
C2059      C2060   1.205       .  T
C2061      C2062   1.206       .  T
C2062      C2063   1.413       .  S
C2063      C2064   1.207       .  T
