geometry optimzed in LAMMPS
_audit_creation_date              2020-11-30 
_audit_creation_method            'lammps2cif' 
_symmetry_space_group_name_H-M    'P1' 
_symmetry_Int_Tables_number       1 
_symmetry_cell_setting            triclinic 
loop_ 
_symmetry_equiv_pos_as_xyz 
  x,y,z 
_cell_length_a                    28.737054440849633 
_cell_length_b                    29.634263187647463 
_cell_length_c                    33.18746785278097 
_cell_angle_alpha                 90.4875004769827 
_cell_angle_beta                  89.35198310863565 
_cell_angle_gamma                 85.62221600547974 
loop_ 
_atom_site_label 
_atom_site_type_symbol 
_atom_site_fract_x 
_atom_site_fract_y 
_atom_site_fract_z 
_atom_site_charge 
C1          C  0.36662183  0.51391244  0.40393855     0.42540
N2          N  0.40276065  0.49252899  0.45780416     0.01430
C3          C  0.04869317  0.10983109  0.07661243    -0.06440
H4          H  0.09123841  0.10451889  0.41809750     0.06930
C5          C  0.11527578  0.43961875  0.42556910    -0.06790
Co6        Co  0.44670277  0.06793483  0.49939110     0.74180
N7          N  0.03533913  0.08586145  0.45665302    -0.25970
Co8        Co  0.06699286  0.04581262  0.50172663     0.74070
C9          C  0.13714950  0.47669907  0.40574687     0.42650
N10         N  0.01203581  0.40145815  0.45954973     0.01050
N11         N  0.09922604  0.00239358  0.45832820     0.01160
N12         N  0.47042980  0.12325639  0.07407337    -0.46820
H13         H  0.38587929  0.08757838  0.41303820     0.06910
N14         N  0.48962579  0.09400644  0.45547285     0.01440
N15         N  0.09762023  0.00432848  0.04624709     0.01180
C16         C  0.13679400  0.97815745  0.09654448     0.42790
N17         N  0.46629352  0.40893671  0.46106198    -0.25430
C18         C  0.37797265  0.06233358  0.07188600    -0.06350
N19         N  0.37794743  0.47808096  0.42766058    -0.46530
N20         N  0.12313282  0.01663489  0.07692319    -0.46760
C21         C  0.35583049  0.02651845  0.09273549     0.42560
N22         N  0.48645679  0.09666713  0.04392993     0.01430
N23         N  0.46628346  0.41366954  0.04879266    -0.25450
N24         N  0.40859728  0.03619754  0.45563754    -0.25940
N25         N  0.01200426  0.40495727  0.04764616     0.01070
H26         H  0.41281349  0.39412597  0.08989253     0.06960
H27         H  0.11965053  0.40546065  0.08281009     0.06990
N28         N  0.03214906  0.08798596  0.04490627    -0.25990
N29         N  0.09292769  0.45878864  0.45780020    -0.25600
N30         N  0.40032242  0.49718436  0.04564847     0.01430
C31         C  0.51504776  0.12950932  0.40439219     0.42830
C32         C  0.44789777  0.38500438  0.43169722    -0.06850
N33         N  0.09313092  0.46036201  0.04532002    -0.25600
H34         H  0.11485444  0.40449459  0.41715302     0.06980
N35         N  0.47602526  0.11959683  0.42457539    -0.46820
H36         H  0.41120665  0.38498080  0.42585011     0.06970
C37         C  0.99021193  0.37056362  0.10061086     0.42670
C38         C  0.38681921  0.05280015  0.42272956    -0.06350
Co39       Co  0.43301762  0.45249770  0.00361408     0.73820
N40         N  0.02646504  0.37390303  0.42956227    -0.46540
C41         C  0.00756034  0.13351226  0.09604729     0.42930
N42         N  0.37210417  0.48691669  0.07545085    -0.46530
Co43       Co  0.05315195  0.43054626  0.00233483     0.73890
C44         C  0.11709744  0.44096673  0.07575178    -0.06860
C45         C  0.05448788  0.10655269  0.42539935    -0.06420
N46         N  0.40471351  0.04105366  0.04320332    -0.25950
N47         N  0.12507190  0.01447001  0.42768705    -0.46710
H48         H  0.08500916  0.10897962  0.08488095     0.06940
C49         C  0.44924955  0.39337471  0.08127267    -0.06830
Cl50       Cl  0.99992727  0.99923886  0.00181739    -0.49840
C51         C  0.48782635  0.36173513  0.41068300     0.42690
H52         H  0.37417568  0.09836092  0.07715766     0.06910
N53         N  0.02755775  0.37978452  0.07806605    -0.46550
C54         C  0.49666179  0.27369744  0.25319657     0.00650
C55         C  0.50216793  0.22690638  0.25202067     0.00650
C56         C  0.27044437  0.51166335  0.25032713     0.00650
C57         C  0.22706857  0.49386035  0.24962873     0.00650
C58         C  0.20142319  0.95473562  0.14191651    -0.05690
C59         C  0.15669284  0.47627943  0.13710421     0.00230
C60         C  0.13145198  0.49318738  0.17146486    -0.08340
C61         C  0.15496639  0.49486471  0.20803675    -0.05710
C62         C  0.20244112  0.48018753  0.21185966     0.00220
C63         C  0.22380295  0.95412048  0.17948624    -0.08250
C64         C  0.26761217  0.92271372  0.18329760     0.62130
H65         H  0.21883648  0.93772423  0.11623119     0.12830
H66         H  0.13531762  0.50817342  0.23373692     0.12840
C67         C  0.07982592  0.50899852  0.17225091     0.62370
F68         F  0.25761163  0.37938111  0.17237365    -0.22800
F69         F  0.28438921  0.42086260  0.22203453    -0.20130
F70         F  0.30197369  0.93621255  0.15763026    -0.19810
F71         F  0.05723275  0.48436592  0.20068742    -0.19860
F72         F  0.05784223  0.00376707  0.13592721    -0.20180
F73         F  0.07472593  0.55417771  0.18327731    -0.22860
C74         C  0.20711517  0.44788323  0.30880838    -0.05690
C75         C  0.20089601  0.48924912  0.28854728     0.00230
C76         C  0.17178530  0.52505438  0.30632930    -0.08340
C77         C  0.15137257  0.51836985  0.34401698    -0.05710
C78         C  0.15946497  0.47799041  0.36530108     0.00220
C79         C  0.18881387  0.94219825  0.34784463    -0.08250
C80         C  0.20307758  0.89906578  0.37027515     0.62130
H81         H  0.22790714  0.92030101  0.29425597     0.12830
H82         H  0.12820957  0.54546346  0.35688896     0.12840
C83         C  0.15676859  0.56944922  0.28629497     0.62370
F84         F  0.24243726  0.37651271  0.35302593    -0.22800
F85         F  0.16739657  0.37042787  0.36908575    -0.20130
F86         F  0.21354686  0.90879468  0.40985476    -0.19810
F87         F  0.10933514  0.56996860  0.27980758    -0.19860
F88         F  0.17888061  0.07573309  0.24991551    -0.20180
F89         F  0.16481998  0.10526120  0.31154957    -0.22860
C90         C  0.27039525  0.54333094  0.18034740    -0.05690
C91         C  0.29691253  0.52334903  0.21210632     0.00230
C92         C  0.34632884  0.51370576  0.20496233    -0.08340
C93         C  0.36369148  0.51682924  0.16535509    -0.05710
C94         C  0.33504660  0.52992212  0.13339854     0.00220
C95         C  0.28806116  0.54473828  0.14068263    -0.08250
C96         C  0.25641914  0.55939764  0.10618443     0.62130
H97         H  0.23447038  0.55524746  0.18619706     0.12830
H98         H  0.40002827  0.50735807  0.15831775     0.12840
C99         C  0.38209812  0.49905404  0.23677749     0.62370
F100        F  0.25486276  0.52407261  0.07880663    -0.22800
F101        F  0.27354103  0.59603595  0.08702907    -0.20130
F102        F  0.21130062  0.07171560  0.11929628    -0.19810
F103        F  0.37396689  0.45672995  0.25079051    -0.19860
F104        F  0.38114317  0.03034172  0.26782202    -0.20180
F105        F  0.42737755  0.99604906  0.22164660    -0.22860
C106        C  0.32192052  0.05381473  0.34912915    -0.05690
C107        C  0.34019685  0.51255463  0.36548655     0.00230
C108        C  0.33371385  0.47171901  0.34412923    -0.08340
C109        C  0.30886788  0.47407088  0.30814030    -0.05710
C110        C  0.29316062  0.51512062  0.29056664     0.00220
C111        C  0.29890367  0.05605189  0.31183090    -0.08250
C112        C  0.28204428  0.10275358  0.29730644     0.62130
H113        H  0.32601258  0.08508964  0.36534876     0.12830
H114        H  0.30351734  0.44326226  0.29185079     0.12840
C115        C  0.35478013  0.42569467  0.35715845     0.62370
F116        F  0.31927167  0.12931210  0.29432073    -0.22800
F117        F  0.25062667  0.12270873  0.32514623    -0.20130
F118        F  0.26101876  0.10231767  0.26023616    -0.19810
F119        F  0.33488674  0.41394370  0.39332402    -0.19860
F120        F  0.40249818  0.42726893  0.36073928    -0.20180
F121        F  0.34739800  0.39177422  0.32949850    -0.22860
C122        C  0.46636786  0.20872303  0.18615839    -0.05690
C123        C  0.50455268  0.20228679  0.21209439     0.00230
C124        C  0.04483112  0.17564318  0.19850407    -0.08340
C125        C  0.04425450  0.15441778  0.16042026    -0.05710
C126        C  0.50538959  0.15939506  0.13502581     0.00220
C127        C  0.46629370  0.18870376  0.14757151    -0.08250
C128        C  0.42482895  0.20010667  0.12059086     0.62130
H129        H  0.43630651  0.22993805  0.19657207     0.12830
H130        H  0.07447798  0.13324721  0.15049024     0.12840
C131        C  0.08860163  0.16989798  0.22364858     0.62370
F132        F  0.39538521  0.23527728  0.13622430    -0.22800
F133        F  0.39921663  0.16281273  0.11667114    -0.20130
F134        F  0.44007086  0.21329795  0.08310343    -0.19810
F135        F  0.07931863  0.14632886  0.25790511    -0.19860
F136        F  0.10324809  0.21157491  0.23444566    -0.20180
F137        F  0.12503198  0.14615599  0.20316799    -0.22860
C138        C  0.48074307  0.14337401  0.33746421    -0.05690
C139        C  0.51468056  0.15378722  0.36530886     0.00230
C140        C  0.04487051  0.18797524  0.35589218    -0.08340
C141        C  0.04075398  0.20933460  0.31818049    -0.05710
C142        C  0.50619277  0.19953722  0.29031234     0.00220
C143        C  0.47573023  0.16547974  0.30015701    -0.08250
C144        C  0.43720669  0.15265046  0.27237273     0.62130
H145        H  0.45797428  0.11723996  0.34532661     0.12830
H146        H  0.06461111  0.23438723  0.31013676     0.12840
C147        C  0.08006209  0.20354522  0.38574391     0.62370
F148        F  0.40886096  0.12299591  0.29059925    -0.22800
F149        F  0.45618195  0.13121606  0.23822353    -0.20130
F150        F  0.40953038  0.19087309  0.26191404    -0.19810
F151        F  0.11717443  0.17130423  0.38833377    -0.19860
F152        F  0.05931893  0.21060837  0.42332454    -0.20180
F153        F  0.09747829  0.24381286  0.37410951    -0.22860
C154        C  0.03126571  0.29363143  0.18707654    -0.05690
C155        C  0.49408710  0.30049705  0.21477286     0.00230
C156        C  0.45484236  0.32988689  0.20423229    -0.08340
C157        C  0.45518991  0.35210650  0.16681417    -0.05710
C158        C  0.49243652  0.34487053  0.13909299     0.00220
C159        C  0.03055768  0.31363666  0.14892330    -0.08250
C160        C  0.07007084  0.29982937  0.11945061     0.62130
H161        H  0.06105120  0.27159416  0.19548852     0.12830
H162        H  0.42624036  0.37581340  0.15918914     0.12840
C163        C  0.41230894  0.33746798  0.23169384     0.62370
F164        F  0.09772410  0.26272253  0.13276641    -0.22800
F165        F  0.09834254  0.33506876  0.11481107    -0.20130
F166        F  0.05215390  0.28818221  0.08259542    -0.19810
F167        F  0.39698024  0.29636313  0.24326852    -0.19860
F168        F  0.37567736  0.36141156  0.21272547    -0.20180
F169        F  0.42341034  0.36196094  0.26537665    -0.22860
C170        C  0.02307737  0.34946447  0.34306427    -0.05690
C171        C  0.48848158  0.33877447  0.37078109     0.00230
C172        C  0.45656326  0.30673604  0.35983141    -0.08340
C173        C  0.45897632  0.28853365  0.32055549    -0.05710
C174        C  0.49379580  0.29890087  0.29274686     0.00220
C175        C  0.02680652  0.32983121  0.30431611    -0.08250
C176        C  0.06667523  0.34153444  0.27679063     0.62130
H177        H  0.04729429  0.37384696  0.35203776     0.12830
H178        H  0.43405864  0.26491658  0.31143566     0.12840
C179        C  0.42137386  0.28974680  0.38943530     0.62370
F180        F  0.04936079  0.36655176  0.24459712    -0.22800
F181        F  0.09110882  0.30240378  0.26294505    -0.20130
F182        F  0.09799683  0.36703180  0.29650805    -0.19810
F183        F  0.38319640  0.32079760  0.39286554    -0.19860
F184        F  0.44131053  0.28278018  0.42683775    -0.20180
F185        F  0.40576282  0.24895384  0.37673854    -0.22860
C186        C  0.36662163  0.51391260  0.90393858     0.42540
N187        N  0.40276057  0.49252903  0.95780410     0.01430
C188        C  0.04869338  0.10983059  0.57661261    -0.06440
H189        H  0.09123816  0.10451924  0.91809743     0.06930
C190        C  0.11527592  0.43961877  0.92556906    -0.06790
Co191      Co  0.44670234  0.06793487  0.99939103     0.74180
N192        N  0.03533893  0.08586172  0.95665293    -0.25970
Co193      Co  0.06699278  0.04581306  0.00172655     0.74070
C194        C  0.13714963  0.47669913  0.90574687     0.42650
N195        N  0.01203589  0.40145813  0.95954968     0.01050
N196        N  0.09922609  0.00239405  0.95832816     0.01160
N197        N  0.47043029  0.12325618  0.57407348    -0.46820
H198        H  0.38587871  0.08757822  0.91303818     0.06910
N199        N  0.48962527  0.09400653  0.95547274     0.01440
N200        N  0.09762021  0.00432787  0.54624711     0.01180
C201        C  0.13679405  0.97815663  0.59654441     0.42790
N202        N  0.46629348  0.40893675  0.96106191    -0.25430
C203        C  0.37797288  0.06233370  0.57188597    -0.06350
N204        N  0.37794727  0.47808106  0.92766054    -0.46530
N205        N  0.12313291  0.01663414  0.57692320    -0.46760
C206        C  0.35583050  0.02651863  0.59273536     0.42560
N207        N  0.48645727  0.09666692  0.54393004     0.01430
N208        N  0.46628360  0.41366956  0.54879269    -0.25450
N209        N  0.40859691  0.03619743  0.95563750    -0.25940
N210        N  0.01200425  0.40495732  0.54764618     0.01070
H211        H  0.41281369  0.39412592  0.58989256     0.06960
H212        H  0.11965049  0.40546073  0.58281014     0.06990
N213        N  0.03214924  0.08798556  0.54490640    -0.25990
N214        N  0.09292780  0.45878861  0.95780018    -0.25600
N215        N  0.40032247  0.49718438  0.54564855     0.01430
C216        C  0.51504716  0.12950944  0.90439208     0.42830
C217        C  0.44789776  0.38500451  0.93169707    -0.06850
N218        N  0.09313089  0.46036207  0.54532003    -0.25600
H219        H  0.11485459  0.40449462  0.91715292     0.06980
N220        N  0.47602469  0.11959691  0.92457528    -0.46820
H221        H  0.41120666  0.38498103  0.92584985     0.06970
C222        C  0.99021199  0.37056359  0.60061084     0.42670
C223        C  0.38681876  0.05279999  0.92272955    -0.06350
Co224      Co  0.43301770  0.45249769  0.50361415     0.73820
N225        N  0.02646515  0.37390305  0.92956221    -0.46540
C226        C  0.00756058  0.13351185  0.59604744     0.42930
N227        N  0.37210409  0.48691677  0.57545087    -0.46530
Co228      Co  0.05315189  0.43054630  0.50233486     0.73890
C229        C  0.11709740  0.44096680  0.57575180    -0.06860
C230        C  0.05448763  0.10655296  0.92539926    -0.06420
N231        N  0.40471381  0.04105371  0.54320336    -0.25950
N232        N  0.12507189  0.01447052  0.92768698    -0.46710
H233        H  0.08500935  0.10897901  0.58488118     0.06940
C234        C  0.44924974  0.39337469  0.58127268    -0.06830
Cl235      Cl  0.99992718  0.99923863  0.50181740    -0.49840
C236        C  0.48782638  0.36173526  0.91068290     0.42690
H237        H  0.37417596  0.09836104  0.57715761     0.06910
N238        N  0.02755778  0.37978452  0.57806602    -0.46550
C239        C  0.49666198  0.27369759  0.75319651     0.00650
C240        C  0.50216805  0.22690654  0.75202063     0.00650
C241        C  0.27044421  0.51166424  0.75032711     0.00650
C242        C  0.22706849  0.49386102  0.74962873     0.00650
C243        C  0.20142344  0.95473512  0.64191640    -0.05690
C244        C  0.15669280  0.47627954  0.63710425     0.00230
C245        C  0.13145189  0.49318746  0.67146488    -0.08340
C246        C  0.15496628  0.49486487  0.70803678    -0.05710
C247        C  0.20244108  0.48018795  0.71185968     0.00220
C248        C  0.22380325  0.95412017  0.67948611    -0.08250
C249        C  0.26761278  0.92271382  0.68329741     0.62130
H250        H  0.21883687  0.93772395  0.61623103     0.12830
H251        H  0.13531744  0.50817344  0.73373695     0.12840
C252        C  0.07982582  0.50899854  0.67225090     0.62370
F253        F  0.25761207  0.37938168  0.67237382    -0.22800
F254        F  0.28438949  0.42086346  0.72203456    -0.20130
F255        F  0.30197412  0.93621305  0.65763009    -0.19810
F256        F  0.05723265  0.48436595  0.70068742    -0.19860
F257        F  0.05784213  0.00376541  0.63592718    -0.20180
F258        F  0.07472576  0.55417774  0.68327726    -0.22860
C259        C  0.20711564  0.44788382  0.80880848    -0.05690
C260        C  0.20089602  0.48924963  0.78854730     0.00230
C261        C  0.17178488  0.52505464  0.80632924    -0.08340
C262        C  0.15137217  0.51836994  0.84401691    -0.05710
C263        C  0.15946499  0.47799059  0.86530106     0.00220
C264        C  0.18881463  0.94219884  0.84784506    -0.08250
C265        C  0.20307905  0.89906690  0.87027610     0.62130
H266        H  0.22790832  0.92030147  0.79425667     0.12830
H267        H  0.12820888  0.54546335  0.85688885     0.12840
C268        C  0.15676773  0.56944936  0.78629488     0.62370
F269        F  0.24243807  0.37651343  0.85302604    -0.22800
F270        F  0.16739750  0.37042822  0.86908604    -0.20130
F271        F  0.21354804  0.90879658  0.90985561    -0.19810
F272        F  0.10933433  0.56996826  0.77980738    -0.19860
F273        F  0.17887959  0.07573247  0.74991464    -0.20180
F274        F  0.16481801  0.10526113  0.81154836    -0.22860
C275        C  0.27039484  0.54333133  0.68034712    -0.05690
C276        C  0.29691231  0.52335015  0.71210627     0.00230
C277        C  0.34632879  0.51370781  0.70496244    -0.08340
C278        C  0.36369133  0.51683062  0.66535510    -0.05710
C279        C  0.33504630  0.52992246  0.63339837     0.00220
C280        C  0.28806074  0.54473827  0.64068232    -0.08250
C281        C  0.25641864  0.55939684  0.60618395     0.62130
H282        H  0.23446987  0.55524757  0.68619666     0.12830
H283        H  0.40002823  0.50735983  0.65831788     0.12840
C284        C  0.38209849  0.49905815  0.73677788     0.62370
F285        F  0.25486260  0.52407136  0.57880656    -0.22800
F286        F  0.27354021  0.59603502  0.58702814    -0.20130
F287        F  0.21130000  0.07171381  0.61929553    -0.19810
F288        F  0.37396925  0.45673380  0.75079145    -0.19860
F289        F  0.38114204  0.03034593  0.76782200    -0.20180
F290        F  0.42737809  0.99605469  0.72164708    -0.22860
C291        C  0.32191939  0.05381443  0.84912961    -0.05690
C292        C  0.34019660  0.51255492  0.86548661     0.00230
C293        C  0.33371420  0.47171945  0.84412886    -0.08340
C294        C  0.30886834  0.47407146  0.80813986    -0.05710
C295        C  0.29316051  0.51512127  0.79056662     0.00220
C296        C  0.29890264  0.05605170  0.81183132    -0.08250
C297        C  0.28204250  0.10275335  0.79730732     0.62130
H298        H  0.32601077  0.08508923  0.86534961     0.12830
H299        H  0.30351834  0.44326295  0.79185000     0.12840
C300        C  0.35478094  0.42569516  0.85715776     0.62370
F301        F  0.31926937  0.12931260  0.79432219    -0.22800
F302        F  0.25062436  0.12270756  0.82514715    -0.20130
F303        F  0.26101732  0.10231758  0.76023689    -0.19810
F304        F  0.33488745  0.41394359  0.89332312    -0.19860
F305        F  0.40249891  0.42726987  0.86073890    -0.20180
F306        F  0.34739937  0.39177490  0.82949747    -0.22860
C307        C  0.46636825  0.20872317  0.68615823    -0.05690
C308        C  0.50455289  0.20228681  0.71209441     0.00230
C309        C  0.04483119  0.17564284  0.69850424    -0.08340
C310        C  0.04425456  0.15441722  0.66042053    -0.05710
C311        C  0.50539000  0.15939481  0.63502594     0.00220
C312        C  0.46629423  0.18870381  0.64757138    -0.08250
C313        C  0.42482978  0.20010701  0.62059046     0.62130
H314        H  0.43630695  0.22993838  0.69657172     0.12830
H315        H  0.07447792  0.13324635  0.65049068     0.12840
C316        C  0.08860166  0.16989765  0.72364880     0.62370
F317        F  0.39538623  0.23527789  0.63622366    -0.22800
F318        F  0.39921712  0.16281331  0.61667065    -0.20130
F319        F  0.44007214  0.21329803  0.58310310    -0.19810
F320        F  0.07931861  0.14632868  0.75790542    -0.19860
F321        F  0.10324819  0.21157460  0.73444575    -0.20180
F322        F  0.12503199  0.14615554  0.70316829    -0.22860
C323        C  0.48074215  0.14337478  0.83746431    -0.05690
C324        C  0.51467996  0.15378751  0.86530885     0.00230
C325        C  0.04487044  0.18797529  0.85589210    -0.08340
C326        C  0.04075404  0.20933458  0.81818038    -0.05710
C327        C  0.50619258  0.19953749  0.79031233     0.00220
C328        C  0.47572945  0.16548061  0.80015716    -0.08250
C329        C  0.43720539  0.15265217  0.77237307     0.62130
H330        H  0.45797300  0.11724105  0.84532674     0.12830
H331        H  0.06461136  0.23438703  0.81013659     0.12840
C332        C  0.08006213  0.20354515  0.88574378     0.62370
F333        F  0.40885890  0.12299848  0.79059984    -0.22800
F334        F  0.45618000  0.13121722  0.73822388    -0.20130
F335        F  0.40952995  0.19087534  0.76191433    -0.19810
F336        F  0.11717452  0.17130417  0.88833342    -0.19860
F337        F  0.05931914  0.21060814  0.92332450    -0.20180
F338        F  0.09747825  0.24381285  0.87410946    -0.22860
C339        C  0.03126584  0.29363138  0.68707645    -0.05690
C340        C  0.49408735  0.30049717  0.71477282     0.00230
C341        C  0.45484265  0.32988707  0.70423226    -0.08340
C342        C  0.45519021  0.35210662  0.66681413    -0.05710
C343        C  0.49243679  0.34487055  0.63909294     0.00220
C344        C  0.03055778  0.31363660  0.64892321    -0.08250
C345        C  0.07007089  0.29982928  0.61945048     0.62130
H346        H  0.06105131  0.27159405  0.69548841     0.12830
H347        H  0.42624070  0.37581355  0.65918909     0.12840
C348        C  0.41230926  0.33746832  0.73169382     0.62370
F349        F  0.09772413  0.26272241  0.63276625    -0.22800
F350        F  0.09834261  0.33506864  0.61481089    -0.20130
F351        F  0.05215387  0.28818214  0.58259531    -0.19810
F352        F  0.39698043  0.29636353  0.74326852    -0.19860
F353        F  0.37567774  0.36141202  0.71272548    -0.20180
F354        F  0.42341077  0.36196126  0.76537662    -0.22860
C355        C  0.02307761  0.34946446  0.84306419    -0.05690
C356        C  0.48848167  0.33877459  0.87078100     0.00230
C357        C  0.45656329  0.30673625  0.85983127    -0.08340
C358        C  0.45897637  0.28853390  0.82055534    -0.05710
C359        C  0.49379597  0.29890102  0.79274679     0.00220
C360        C  0.02680676  0.32983118  0.80431604    -0.08250
C361        C  0.06667554  0.34153431  0.77679059     0.62130
H362        H  0.04729457  0.37384690  0.85203770     0.12830
H363        H  0.43405862  0.26491693  0.81143546     0.12840
C364        C  0.42137379  0.28974705  0.88943510     0.62370
F365        F  0.04936119  0.36655166  0.74459707    -0.22800
F366        F  0.09110906  0.30240360  0.76294503    -0.20130
F367        F  0.09799719  0.36703159  0.79650803    -0.19810
F368        F  0.38319633  0.32079786  0.89286523    -0.19860
F369        F  0.44131036  0.28278045  0.92683760    -0.20180
F370        F  0.40576278  0.24895408  0.87673832    -0.22860
C371        C  0.36662105  0.01391233  0.40393855     0.42540
N372        N  0.40275987  0.99252884  0.45780415     0.01430
C373        C  0.04869422  0.60983119  0.07661236    -0.06440
H374        H  0.09123917  0.60451926  0.41809742     0.06930
C375        C  0.11527491  0.93961840  0.42556903    -0.06790
Co376      Co  0.44670342  0.56793508  0.49939104     0.74180
N377        N  0.03533989  0.58586179  0.45665294    -0.25970
Co378      Co  0.06699364  0.54581306  0.50172656     0.74070
C379        C  0.13714869  0.97669872  0.40574687     0.42650
N380        N  0.01203486  0.90145787  0.45954965     0.01050
N381        N  0.09922686  0.50239397  0.45832820     0.01160
N382        N  0.47043085  0.62325663  0.07407326    -0.46820
H383        H  0.38588000  0.58757850  0.41303820     0.06910
N384        N  0.48962639  0.59400669  0.45547275     0.01440
N385        N  0.09762103  0.50432839  0.04624708     0.01180
C386        C  0.13679468  0.47815740  0.09654454     0.42790
N387        N  0.46629266  0.90893651  0.46106192    -0.25430
C388        C  0.37797364  0.56233385  0.07188602    -0.06350
N389        N  0.37794663  0.97808085  0.42766058    -0.46530
N390        N  0.12313360  0.51663481  0.07692318    -0.46760
C391        C  0.35583146  0.52651872  0.09273550     0.42560
N392        N  0.48645784  0.59666729  0.04392989     0.01430
N393        N  0.46628272  0.91366938  0.04879264    -0.25450
N394        N  0.40859800  0.53619769  0.45563753    -0.25940
N395        N  0.01200365  0.90495725  0.04764615     0.01070
H396        H  0.41281282  0.89412567  0.08989250     0.06960
H397        H  0.11964997  0.90546070  0.08280995     0.06990
N398        N  0.03215008  0.58798601  0.04490625    -0.25990
N399        N  0.09292682  0.95878826  0.45780014    -0.25600
N400        N  0.40032150  0.99718409  0.04564849     0.01430
C401        C  0.51504831  0.62950957  0.40439209     0.42830
C402        C  0.44789690  0.88500419  0.43169715    -0.06850
N403        N  0.09313020  0.96036209  0.04531999    -0.25600
H404        H  0.11485354  0.90449425  0.41715289     0.06980
N405        N  0.47602583  0.61959706  0.42457529    -0.46820
H406        H  0.41120578  0.88498065  0.42585002     0.06970
C407        C  0.99021143  0.87056350  0.10061082     0.42670
C408        C  0.38681994  0.55280028  0.42272956    -0.06350
Co409      Co  0.43301679  0.95249746  0.00361409     0.73820
N410        N  0.02646410  0.87390275  0.42956222    -0.46540
C411        C  0.00756140  0.63351246  0.09604715     0.42930
N412        N  0.37210325  0.98691641  0.07545088    -0.46530
Co413      Co  0.05315127  0.93054630  0.00233484     0.73890
C414        C  0.11709679  0.94096679  0.07575169    -0.06860
C415        C  0.05448863  0.60655302  0.42539927    -0.06420
N416        N  0.40471449  0.54105392  0.04320332    -0.25950
N417        N  0.12507269  0.51447038  0.42768702    -0.46710
H418        H  0.08501020  0.60897969  0.08488088     0.06940
C419        C  0.44924887  0.89337450  0.08127264    -0.06830
Cl420      Cl  0.99992811  0.49923894  0.00181737    -0.49840
C421        C  0.48782549  0.86173493  0.41068294     0.42690
H422        H  0.37417668  0.59836118  0.07715767     0.06910
N423        N  0.02755721  0.87978451  0.07806602    -0.46550
C424        C  0.49666174  0.77369749  0.25319650     0.00650
C425        C  0.50216827  0.72690645  0.25202057     0.00650
C426        C  0.27044352  0.01166323  0.25032716     0.00650
C427        C  0.22706777  0.99386010  0.24962875     0.00650
C428        C  0.20142383  0.45473559  0.14191660    -0.05690
C429        C  0.15669216  0.97627939  0.13710416     0.00230
C430        C  0.13145119  0.99318699  0.17146487    -0.08340
C431        C  0.15496554  0.99486418  0.20803680    -0.05710
C432        C  0.20244035  0.98018723  0.21185967     0.00220
C433        C  0.22380364  0.45412059  0.17948630    -0.08250
C434        C  0.26761282  0.42271379  0.18329771     0.62130
H435        H  0.21883705  0.43772405  0.11623132     0.12830
H436        H  0.13531669  0.00817260  0.23373703     0.12840
C437        C  0.07982507  0.00899789  0.17225095     0.62370
F438        F  0.25761103  0.87938105  0.17237347    -0.22800
F439        F  0.28438856  0.92086248  0.22203442    -0.20130
F440        F  0.30197435  0.43621253  0.15763032    -0.19810
F441        F  0.05723199  0.98436490  0.20068724    -0.19860
F442        F  0.05784300  0.50376748  0.13592724    -0.20180
F443        F  0.07472481  0.05417697  0.18327767    -0.22860
C444        C  0.20711461  0.94788302  0.30880851    -0.05690
C445        C  0.20089523  0.98924883  0.28854730     0.00230
C446        C  0.17178431  0.02505399  0.30632924    -0.08340
C447        C  0.15137157  0.01836945  0.34401692    -0.05710
C448        C  0.15946417  0.97799009  0.36530109     0.00220
C449        C  0.18881445  0.44219846  0.34784452    -0.08250
C450        C  0.20307795  0.39906587  0.37027491     0.62130
H451        H  0.22790753  0.42030117  0.29425578     0.12830
H452        H  0.12820842  0.04546297  0.35688884     0.12840
C453        C  0.15676739  0.06944873  0.28629482     0.62370
F454        F  0.24243700  0.87651276  0.35302624    -0.22800
F455        F  0.16739637  0.87042760  0.36908606    -0.20130
F456        F  0.21354732  0.40879456  0.40985454    -0.19810
F457        F  0.10933397  0.06996784  0.27980737    -0.19860
F458        F  0.17888179  0.57573355  0.24991564    -0.20180
F459        F  0.16482142  0.60526157  0.31154977    -0.22860
C460        C  0.27039430  0.04333077  0.18034739    -0.05690
C461        C  0.29691165  0.02334903  0.21210635     0.00230
C462        C  0.34632799  0.01370602  0.20496239    -0.08340
C463        C  0.36369058  0.01682930  0.16535510    -0.05710
C464        C  0.33504564  0.02992190  0.13339853     0.00220
C465        C  0.28806019  0.04473803  0.14068261    -0.08250
C466        C  0.25641814  0.05939726  0.10618439     0.62130
H467        H  0.23446940  0.05524721  0.18619704     0.12830
H468        H  0.40002739  0.00735821  0.15831779     0.12840
C469        C  0.38209742  0.99905492  0.23677761     0.62370
F470        F  0.25486179  0.02407215  0.07880666    -0.22800
F471        F  0.27353998  0.09603554  0.08702895    -0.20130
F472        F  0.21130163  0.57171599  0.11929633    -0.19810
F473        F  0.37396680  0.95673074  0.25079079    -0.19860
F474        F  0.38114432  0.53034066  0.26782202    -0.20180
F475        F  0.42737825  0.49604763  0.22164646    -0.22860
C476        C  0.32192158  0.55381487  0.34912901    -0.05690
C477        C  0.34019605  0.01255452  0.36548656     0.00230
C478        C  0.33371327  0.97171892  0.34412913    -0.08340
C479        C  0.30886728  0.97407077  0.30814021    -0.05710
C480        C  0.29315977  0.01512049  0.29056667     0.00220
C481        C  0.29890478  0.55605204  0.31183074    -0.08250
C482        C  0.28204567  0.60275376  0.29730615     0.62130
H483        H  0.32601382  0.58508980  0.36534853     0.12830
H484        H  0.30351694  0.94326216  0.29185060     0.12840
C485        C  0.35477979  0.92569463  0.35715824     0.62370
F486        F  0.31927324  0.62931204  0.29432036    -0.22800
F487        F  0.25062818  0.62270919  0.32514590    -0.20130
F488        F  0.26102013  0.60231785  0.26023589    -0.19810
F489        F  0.33488637  0.91394341  0.39332374    -0.19860
F490        F  0.40249780  0.92726912  0.36073918    -0.20180
F491        F  0.34739792  0.89177422  0.32949818    -0.22860
C492        C  0.46636844  0.70872300  0.18615825    -0.05690
C493        C  0.50455326  0.70228693  0.21209427     0.00230
C494        C  0.04483200  0.67564359  0.19850389    -0.08340
C495        C  0.04425554  0.65441825  0.16042006    -0.05710
C496        C  0.50539055  0.65939541  0.13502563     0.00220
C497        C  0.46629450  0.68870389  0.14757132    -0.08250
C498        C  0.42482980  0.70010680  0.12059061     0.62130
H499        H  0.43630694  0.72993780  0.19657196     0.12830
H500        H  0.07447916  0.63324789  0.15049000     0.12840
C501        C  0.08860254  0.66989867  0.22364840     0.62370
F502        F  0.39538603  0.73527740  0.13622401    -0.22800
F503        F  0.39921750  0.66281286  0.11667086    -0.20130
F504        F  0.44007176  0.71329808  0.08310321    -0.19810
F505        F  0.07931975  0.64632944  0.25790492    -0.19860
F506        F  0.10324868  0.71157572  0.23444553    -0.20180
F507        F  0.12503305  0.64615695  0.20316779    -0.22860
C508        C  0.48074389  0.64337380  0.33746398    -0.05690
C509        C  0.51468110  0.65378738  0.36530875     0.00230
C510        C  0.04487094  0.68797566  0.35589216    -0.08340
C511        C  0.04075438  0.70933493  0.31818043    -0.05710
C512        C  0.50619324  0.69953725  0.29031220     0.00220
C513        C  0.47573105  0.66547944  0.30015675    -0.08250
C514        C  0.43720785  0.65264969  0.27237229     0.62130
H515        H  0.45797533  0.61723955  0.34532633     0.12830
H516        H  0.06461126  0.73438782  0.31013678     0.12840
C517        C  0.08006217  0.70354601  0.38574403     0.62370
F518        F  0.40886248  0.62299469  0.29059865    -0.22800
F519        F  0.45618354  0.63121555  0.23822314    -0.20130
F520        F  0.40953110  0.69087202  0.26191357    -0.19810
F521        F  0.11717466  0.67130524  0.38833424    -0.19860
F522        F  0.05931867  0.71060926  0.42332451    -0.20180
F523        F  0.09747823  0.74381370  0.37410957    -0.22860
C524        C  0.03126564  0.79363164  0.18707650    -0.05690
C525        C  0.49408690  0.80049712  0.21477282     0.00230
C526        C  0.45484201  0.82988676  0.20423226    -0.08340
C527        C  0.45518942  0.85210634  0.16681412    -0.05710
C528        C  0.49243600  0.84487043  0.13909290     0.00220
C529        C  0.03055742  0.81363671  0.14892322    -0.08250
C530        C  0.07007047  0.79982937  0.11945043     0.62130
H531        H  0.06105128  0.77159457  0.19548850     0.12830
H532        H  0.42623978  0.87581313  0.15918909     0.12840
C533        C  0.41230857  0.83746768  0.23169380     0.62370
F534        F  0.09772375  0.76272252  0.13276621    -0.22800
F535        F  0.09834218  0.83506873  0.11481077    -0.20130
F536        F  0.05215340  0.78818217  0.08259531    -0.19810
F537        F  0.39698008  0.79636275  0.24326849    -0.19860
F538        F  0.37567689  0.86141111  0.21272544    -0.20180
F539        F  0.42340986  0.86196072  0.26537661    -0.22860
C540        C  0.02307648  0.84946471  0.34306420    -0.05690
C541        C  0.48848078  0.83877444  0.37078097     0.00230
C542        C  0.45656273  0.80673579  0.35983125    -0.08340
C543        C  0.45897604  0.78853338  0.32055534    -0.05710
C544        C  0.49379547  0.79890089  0.29274678     0.00220
C545        C  0.02680589  0.82983147  0.30431605    -0.08250
C546        C  0.06667453  0.84153507  0.27679064     0.62130
H547        H  0.04729315  0.87384741  0.35203774     0.12830
H548        H  0.43405860  0.76491609  0.31143546     0.12840
C549        C  0.42137337  0.78974638  0.38943509     0.62370
F550        F  0.04935994  0.86655228  0.24459713    -0.22800
F551        F  0.09110849  0.80240460  0.26294508    -0.20130
F552        F  0.09799584  0.86703270  0.29650813    -0.19810
F553        F  0.38319598  0.82079722  0.39286560    -0.19860
F554        F  0.44131018  0.78277944  0.42683745    -0.20180
F555        F  0.40576219  0.74895356  0.37673812    -0.22860
C556        C  0.36662070  0.01391211  0.90393856     0.42540
N557        N  0.40275965  0.99252870  0.95780411     0.01430
C558        C  0.04869413  0.60983120  0.57661242    -0.06440
H559        H  0.09123930  0.60451923  0.91809747     0.06930
C560        C  0.11527522  0.93961884  0.92556910    -0.06790
Co561      Co  0.44670339  0.56793508  0.99939102     0.74180
N562        N  0.03533999  0.58586175  0.95665293    -0.25970
Co563      Co  0.06699372  0.54581301  0.00172655     0.74070
C564        C  0.13714884  0.97669921  0.90574689     0.42650
N565        N  0.01203529  0.90145808  0.95954973     0.01050
N566        N  0.09922695  0.50239394  0.95832821     0.01160
N567        N  0.47043089  0.62325659  0.57407333    -0.46820
H568        H  0.38587982  0.58757864  0.91303828     0.06910
N569        N  0.48962639  0.59400669  0.95547273     0.01440
N570        N  0.09762099  0.50432845  0.54624709     0.01180
C571        C  0.13679466  0.47815747  0.59654456     0.42790
N572        N  0.46629274  0.90893655  0.96106192    -0.25430
C573        C  0.37797353  0.56233393  0.57188589    -0.06350
N574        N  0.37794641  0.97808063  0.92766056    -0.46530
N575        N  0.12313356  0.51663488  0.57692319    -0.46760
C576        C  0.35583127  0.52651886  0.59273537     0.42560
N577        N  0.48645788  0.59666729  0.54392992     0.01430
N578        N  0.46628273  0.91366928  0.54879261    -0.25450
N579        N  0.40859793  0.53619774  0.95563751    -0.25940
N580        N  0.01200329  0.90495695  0.54764605     0.01070
H581        H  0.41281283  0.89412569  0.58989254     0.06960
H582        H  0.11964970  0.90545998  0.58280984     0.06990
N583        N  0.03215000  0.58798605  0.54490628    -0.25990
N584        N  0.09292705  0.95878870  0.95780018    -0.25600
N585        N  0.40032167  0.99718416  0.54564851     0.01430
C586        C  0.51504838  0.62950958  0.90439209     0.42830
C587        C  0.44789711  0.88500423  0.93169708    -0.06850
N588        N  0.09313005  0.96036151  0.54531996    -0.25600
H589        H  0.11485396  0.90449467  0.91715299     0.06980
N590        N  0.47602587  0.61959709  0.92457527    -0.46820
H591        H  0.41120603  0.88498065  0.92584984     0.06970
C592        C  0.99021107  0.87056322  0.60061070     0.42670
C593        C  0.38681980  0.55280039  0.92272960    -0.06350
Co594      Co  0.43301687  0.95249748  0.50361411     0.73820
N595        N  0.02646465  0.87390302  0.92956228    -0.46540
C596        C  0.00756131  0.63351243  0.59604725     0.42930
N597        N  0.37210324  0.98691656  0.57545080    -0.46530
Co598      Co  0.05315097  0.93054592  0.50233477     0.73890
C599        C  0.11709664  0.94096609  0.57575161    -0.06860
C600        C  0.05448876  0.60655299  0.92539927    -0.06420
N601        N  0.40471452  0.54105394  0.54320332    -0.25950
N602        N  0.12507278  0.51447040  0.92768706    -0.46710
H603        H  0.08501011  0.60897969  0.58488094     0.06940
C604        C  0.44924887  0.89337441  0.58127261    -0.06830
Cl605      Cl  0.99992804  0.49923897  0.50181742    -0.49840
C606        C  0.48782580  0.86173507  0.91068294     0.42690
H607        H  0.37417648  0.59836128  0.57715742     0.06910
N608        N  0.02755684  0.87978414  0.57806587    -0.46550
C609        C  0.49666213  0.77369761  0.75319653     0.00650
C610        C  0.50216859  0.72690657  0.75202060     0.00650
C611        C  0.27044344  0.01166336  0.75032701     0.00650
C612        C  0.22706779  0.99385999  0.74962863     0.00650
C613        C  0.20142385  0.45473584  0.64191666    -0.05690
C614        C  0.15669221  0.97627849  0.63710410     0.00230
C615        C  0.13145111  0.99318574  0.67146486    -0.08340
C616        C  0.15496544  0.99486296  0.70803681    -0.05710
C617        C  0.20244043  0.98018668  0.71185959     0.00220
C618        C  0.22380368  0.45412102  0.67948636    -0.08250
C619        C  0.26761303  0.42271446  0.68329777     0.62130
H620        H  0.21883712  0.43772430  0.61623140     0.12830
H621        H  0.13531642  0.00817094  0.73373709     0.12840
C622        C  0.07982490  0.00899632  0.67225094     0.62370
F623        F  0.25761211  0.87938103  0.67237322    -0.22800
F624        F  0.28438919  0.92086269  0.72203422    -0.20130
F625        F  0.30197444  0.43621332  0.65763033    -0.19810
F626        F  0.05723198  0.98436315  0.70068719    -0.19860
F627        F  0.05784292  0.50376744  0.63592722    -0.20180
F628        F  0.07472435  0.05417539  0.68327770    -0.22860
C629        C  0.20711533  0.94788337  0.80880889    -0.05690
C630        C  0.20089527  0.98924885  0.78854723     0.00230
C631        C  0.17178376  0.02505386  0.80632878    -0.08340
C632        C  0.15137107  0.01836947  0.84401652    -0.05710
C633        C  0.15946431  0.97799048  0.86530111     0.00220
C634        C  0.18881487  0.44219890  0.84784458    -0.08250
C635        C  0.20307869  0.39906643  0.87027505     0.62130
H636        H  0.22790833  0.42030194  0.79425594     0.12830
H637        H  0.12820746  0.04546281  0.85688818     0.12840
C638        C  0.15676621  0.06944818  0.78629390     0.62370
F639        F  0.24243886  0.87651427  0.85302748    -0.22800
F640        F  0.16739840  0.87042806  0.86908731    -0.20130
F641        F  0.21354809  0.40879532  0.90985463    -0.19810
F642        F  0.10933288  0.06996650  0.77980621    -0.19860
F643        F  0.17888098  0.57573390  0.74991561    -0.20180
F644        F  0.16482007  0.60526184  0.81154969    -0.22860
C645        C  0.27039389  0.04333048  0.68034702    -0.05690
C646        C  0.29691148  0.02334952  0.71210619     0.00230
C647        C  0.34632805  0.01370774  0.70496243    -0.08340
C648        C  0.36369059  0.01683064  0.66535510    -0.05710
C649        C  0.33504549  0.02992217  0.63339834     0.00220
C650        C  0.28805982  0.04473758  0.64068223    -0.08250
C651        C  0.25641767  0.05939592  0.60618382     0.62130
H652        H  0.23446882  0.05524641  0.68619649     0.12830
H653        H  0.40002756  0.00736017  0.65831792     0.12840
C654        C  0.38209790  0.99905863  0.73677792     0.62370
F655        F  0.25486193  0.02407040  0.57880644    -0.22800
F656        F  0.27353900  0.09603422  0.58702802    -0.20130
F657        F  0.21130104  0.57171502  0.61929571    -0.19810
F658        F  0.37396934  0.95673411  0.75079150    -0.19860
F659        F  0.38114317  0.53034539  0.76782198    -0.20180
F660        F  0.42737866  0.49605353  0.72164698    -0.22860
C661        C  0.32192072  0.55381517  0.84912952    -0.05690
C662        C  0.34019573  0.01255429  0.86548656     0.00230
C663        C  0.33371383  0.97171880  0.84412866    -0.08340
C664        C  0.30886800  0.97407069  0.80813963    -0.05710
C665        C  0.29315972  0.01512044  0.79056653     0.00220
C666        C  0.29890395  0.55605253  0.81183124    -0.08250
C667        C  0.28204435  0.60275427  0.79730707     0.62130
H668        H  0.32601248  0.58508997  0.86534939     0.12830
H669        H  0.30351836  0.94326216  0.79184965     0.12840
C670        C  0.35478103  0.92569465  0.85715747     0.62370
F671        F  0.31927157  0.62931305  0.79432174    -0.22800
F672        F  0.25062650  0.62270899  0.82514688    -0.20130
F673        F  0.26101905  0.60231856  0.76023669    -0.19810
F674        F  0.33488752  0.91394272  0.89332270    -0.19860
F675        F  0.40249892  0.92726985  0.86073880    -0.20180
F676        F  0.34739997  0.89177440  0.82949702    -0.22860
C677        C  0.46636859  0.70872300  0.68615838    -0.05690
C678        C  0.50455347  0.70228697  0.71209435     0.00230
C679        C  0.04483210  0.67564366  0.69850392    -0.08340
C680        C  0.04425554  0.65441829  0.66042010    -0.05710
C681        C  0.50539060  0.65939534  0.63502573     0.00220
C682        C  0.46629453  0.68870377  0.64757149    -0.08250
C683        C  0.42482966  0.70010645  0.62059093     0.62130
H684        H  0.43630714  0.72993785  0.69657211     0.12830
H685        H  0.07447917  0.63324797  0.65048998     0.12840
C686        C  0.08860275  0.66989885  0.72364830     0.62370
F687        F  0.39538574  0.73527689  0.63622442    -0.22800
F688        F  0.39921758  0.66281233  0.61667130    -0.20130
F689        F  0.44007135  0.71329781  0.58310347    -0.19810
F690        F  0.07932014  0.64632965  0.75790488    -0.19860
F691        F  0.10324886  0.71157593  0.73444532    -0.20180
F692        F  0.12503321  0.64615716  0.70316760    -0.22860
C693        C  0.48074356  0.64337445  0.83746421    -0.05690
C694        C  0.51468120  0.65378749  0.86530878     0.00230
C695        C  0.04487149  0.68797541  0.85589201    -0.08340
C696        C  0.04075488  0.70933476  0.81818032    -0.05710
C697        C  0.50619346  0.69953743  0.79031225     0.00220
C698        C  0.47573072  0.66548018  0.80015703    -0.08250
C699        C  0.43720690  0.65265125  0.77237290     0.62130
H700        H  0.45797463  0.61724053  0.84532667     0.12830
H701        H  0.06461197  0.73438742  0.81013654     0.12840
C702        C  0.08006324  0.70354529  0.88574363     0.62370
F703        F  0.40886093  0.62299702  0.79059956    -0.22800
F704        F  0.45618183  0.63121666  0.73822366    -0.20130
F705        F  0.40953089  0.69087409  0.76191426    -0.19810
F706        F  0.11717553  0.67130422  0.88833336    -0.19860
F707        F  0.05932026  0.71060848  0.92332432    -0.20180
F708        F  0.09747950  0.74381288  0.87410917    -0.22860
C709        C  0.03126558  0.79363152  0.68707632    -0.05690
C710        C  0.49408723  0.80049723  0.71477284     0.00230
C711        C  0.45484240  0.82988704  0.70423240    -0.08340
C712        C  0.45518969  0.85210650  0.66681420    -0.05710
C713        C  0.49243604  0.84487027  0.63909281     0.00220
C714        C  0.03055703  0.81363630  0.64892292    -0.08250
C715        C  0.07006950  0.79982831  0.61944975     0.62130
H716        H  0.06105124  0.77159441  0.69548819     0.12830
H717        H  0.42624013  0.87581343  0.65918926     0.12840
C718        C  0.41230917  0.83746830  0.73169414     0.62370
F719        F  0.09772240  0.76272112  0.63276535    -0.22800
F720        F  0.09834175  0.83506718  0.61480964    -0.20130
F721        F  0.05215169  0.78818128  0.58259487    -0.19810
F722        F  0.39698045  0.79636351  0.74326896    -0.19860
F723        F  0.37567753  0.86141195  0.71272594    -0.20180
F724        F  0.42341087  0.86196130  0.76537684    -0.22860
C725        C  0.02307708  0.84946482  0.84306420    -0.05690
C726        C  0.48848123  0.83877452  0.87078101     0.00230
C727        C  0.45656324  0.80673580  0.85983132    -0.08340
C728        C  0.45897650  0.78853344  0.82055540    -0.05710
C729        C  0.49379592  0.79890097  0.79274682     0.00220
C730        C  0.02680640  0.82983158  0.80431605    -0.08250
C731        C  0.06667492  0.84153520  0.77679052     0.62130
H732        H  0.04729375  0.87384755  0.85203769     0.12830
H733        H  0.43405904  0.76491617  0.81143553     0.12840
C734        C  0.42137401  0.78974624  0.88943519     0.62370
F735        F  0.04936019  0.86655241  0.74459706    -0.22800
F736        F  0.09110884  0.80240475  0.76294488    -0.20130
F737        F  0.09799629  0.86703283  0.79650793    -0.19810
F738        F  0.38319644  0.82079688  0.89286567    -0.19860
F739        F  0.44131086  0.78277948  0.92683756    -0.20180
F740        F  0.40576309  0.74895328  0.87673829    -0.22860
C741        C  0.86662180  0.51391246  0.40393855     0.42540
N742        N  0.90276060  0.49252899  0.45780417     0.01430
C743        C  0.54869307  0.10983105  0.07661242    -0.06440
H744        H  0.59123860  0.10451896  0.41809754     0.06930
C745        C  0.61527584  0.43961880  0.42556908    -0.06790
Co746      Co  0.94670260  0.06793477  0.49939110     0.74180
N747        N  0.53533931  0.08586152  0.45665305    -0.25970
Co748      Co  0.56699303  0.04581267  0.50172665     0.74070
C749        C  0.63714955  0.47669913  0.40574686     0.42650
N750        N  0.51203588  0.40145817  0.45954971     0.01050
N751        N  0.59922621  0.00239364  0.45832822     0.01160
N752        N  0.97042990  0.12325640  0.07407337    -0.46820
H753        H  0.88587910  0.08757832  0.41303821     0.06910
N754        N  0.98962561  0.09400637  0.45547282     0.01440
N755        N  0.59762008  0.00432843  0.04624708     0.01180
C756        C  0.63679388  0.97815738  0.09654446     0.42790
N757        N  0.96629346  0.40893671  0.46106200    -0.25430
C758        C  0.87797273  0.06233358  0.07188596    -0.06350
N759        N  0.87794739  0.47808097  0.42766058    -0.46530
N760        N  0.62313270  0.01663483  0.07692317    -0.46760
C761        C  0.85583055  0.02651846  0.09273543     0.42560
N762        N  0.98645691  0.09666715  0.04392993     0.01430
N763        N  0.96628354  0.41366951  0.04879263    -0.25450
N764        N  0.90859709  0.03619747  0.45563754    -0.25940
N765        N  0.51200418  0.40495731  0.04764619     0.01070
H766        H  0.91281357  0.39412596  0.08989251     0.06960
H767        H  0.61965045  0.40546071  0.08281013     0.06990
N768        N  0.53214894  0.08798593  0.04490627    -0.25990
N769        N  0.59292775  0.45878868  0.45780018    -0.25600
N770        N  0.90032250  0.49718434  0.04564846     0.01430
C771        C  0.01504756  0.12950926  0.40439216     0.42830
C772        C  0.94789770  0.38500438  0.43169723    -0.06850
N773        N  0.59313084  0.46036206  0.04532005    -0.25600
H774        H  0.61485450  0.40449464  0.41715300     0.06980
N775        N  0.97602507  0.11959678  0.42457537    -0.46820
H776        H  0.91120658  0.38498082  0.42585011     0.06970
C777        C  0.49021185  0.37056364  0.10061088     0.42670
C778        C  0.88681903  0.05280009  0.42272957    -0.06350
Co779      Co  0.93301770  0.45249767  0.00361406     0.73820
N780        N  0.52646510  0.37390304  0.42956225    -0.46540
C781        C  0.50756026  0.13351222  0.09604729     0.42930
N782        N  0.87210423  0.48691667  0.07545083    -0.46530
Co783      Co  0.55315188  0.43054630  0.00233486     0.73890
C784        C  0.61709736  0.44096679  0.07575181    -0.06860
C785        C  0.55448807  0.10655275  0.42539938    -0.06420
N786        N  0.90471364  0.04105365  0.04320331    -0.25950
N787        N  0.62507205  0.01447008  0.42768706    -0.46710
H788        H  0.58500906  0.10897956  0.08488093     0.06940
C789        C  0.94924963  0.39337469  0.08127264    -0.06830
Cl790      Cl  0.49992711  0.99923885  0.00181738    -0.49840
C791        C  0.98782629  0.36173513  0.41068301     0.42690
H792        H  0.87417573  0.09836093  0.07715759     0.06910
N793        N  0.52755767  0.37978455  0.07806607    -0.46550
C794        C  0.99666177  0.27369748  0.25319657     0.00650
C795        C  0.00216788  0.22690642  0.25202067     0.00650
C796        C  0.77044440  0.51166341  0.25032710     0.00650
C797        C  0.72706859  0.49386043  0.24962871     0.00650
C798        C  0.70142314  0.95473563  0.14191645    -0.05690
C799        C  0.65669279  0.47627950  0.13710423     0.00230
C800        C  0.63145196  0.49318745  0.17146488    -0.08340
C801        C  0.65496638  0.49486479  0.20803676    -0.05710
C802        C  0.70244112  0.48018761  0.21185964     0.00220
C803        C  0.72380294  0.95412053  0.17948617    -0.08250
C804        C  0.76761221  0.92271385  0.18329750     0.62130
H805        H  0.71883643  0.93772427  0.11623112     0.12830
H806        H  0.63531764  0.50817351  0.23373694     0.12840
C807        C  0.57982590  0.50899860  0.17225095     0.62370
F808        F  0.75761159  0.37938117  0.17237364    -0.22800
F809        F  0.78438921  0.42086267  0.22203449    -0.20130
F810        F  0.80197368  0.93621274  0.15763013    -0.19810
F811        F  0.55723274  0.48436600  0.20068747    -0.19860
F812        F  0.55784211  0.00376688  0.13592722    -0.20180
F813        F  0.57472591  0.55417778  0.18327735    -0.22860
C814        C  0.70711521  0.44788331  0.30880837    -0.05690
C815        C  0.70089605  0.48924920  0.28854726     0.00230
C816        C  0.67178534  0.52505445  0.30632929    -0.08340
C817        C  0.65137261  0.51836992  0.34401697    -0.05710
C818        C  0.65946502  0.47799048  0.36530107     0.00220
C819        C  0.68881406  0.94219839  0.34784465    -0.08250
C820        C  0.70307792  0.89906601  0.37027524     0.62130
H821        H  0.72790738  0.92030118  0.29425602     0.12830
H822        H  0.62820961  0.54546353  0.35688896     0.12840
C823        C  0.65676862  0.56944930  0.28629497     0.62370
F824        F  0.74243732  0.37651280  0.35302591    -0.22800
F825        F  0.66739664  0.37042794  0.36908572    -0.20130
F826        F  0.71354720  0.90879504  0.40985482    -0.19810
F827        F  0.60933518  0.56996868  0.27980758    -0.19860
F828        F  0.67888033  0.07573307  0.24991536    -0.20180
F829        F  0.66481952  0.10526124  0.31154937    -0.22860
C830        C  0.77039529  0.54333096  0.18034735    -0.05690
C831        C  0.79691257  0.52334908  0.21210629     0.00230
C832        C  0.84632888  0.51370582  0.20496231    -0.08340
C833        C  0.86369152  0.51682927  0.16535507    -0.05710
C834        C  0.83504665  0.52992211  0.13339851     0.00220
C835        C  0.78806121  0.54473827  0.14068259    -0.08250
C836        C  0.75641919  0.55939759  0.10618437     0.62130
H837        H  0.73447042  0.55524749  0.18619700     0.12830
H838        H  0.90002832  0.50735810  0.15831774     0.12840
C839        C  0.88209817  0.49905417  0.23677749     0.62370
F840        F  0.75486283  0.52407254  0.07880659    -0.22800
F841        F  0.77354108  0.59603589  0.08702899    -0.20130
F842        F  0.71130053  0.07171520  0.11929601    -0.19810
F843        F  0.87396700  0.45673008  0.25079053    -0.19860
F844        F  0.88114286  0.03034283  0.26782200    -0.20180
F845        F  0.92737768  0.99605052  0.22164673    -0.22860
C846        C  0.82192020  0.05381470  0.34912925    -0.05690
C847        C  0.84019684  0.51255466  0.36548654     0.00230
C848        C  0.83371386  0.47171905  0.34412920    -0.08340
C849        C  0.80886791  0.47407093  0.30814026    -0.05710
C850        C  0.79316065  0.51512067  0.29056661     0.00220
C851        C  0.79890339  0.05605191  0.31183098    -0.08250
C852        C  0.78204385  0.10275360  0.29730664     0.62130
H853        H  0.82601210  0.08508957  0.36534897     0.12830
H854        H  0.80351740  0.44326231  0.29185073     0.12840
C855        C  0.85478015  0.42569471  0.35715841     0.62370
F856        F  0.81927112  0.12931227  0.29432108    -0.22800
F857        F  0.75062611  0.12270852  0.32514643    -0.20130
F858        F  0.76101843  0.10231773  0.26023632    -0.19810
F859        F  0.83488673  0.41394371  0.39332397    -0.19860
F860        F  0.90249819  0.42726897  0.36073927    -0.20180
F861        F  0.84739805  0.39177427  0.32949845    -0.22860
C862        C  0.96636787  0.20872306  0.18615837    -0.05690
C863        C  0.00455266  0.20228682  0.21209440     0.00230
C864        C  0.54483112  0.17564316  0.19850403    -0.08340
C865        C  0.54425446  0.15441774  0.16042024    -0.05710
C866        C  0.00538965  0.15939510  0.13502581     0.00220
C867        C  0.96629375  0.18870379  0.14757148    -0.08250
C868        C  0.92482903  0.20010671  0.12059081     0.62130
H869        H  0.93630651  0.22993809  0.19657202     0.12830
H870        H  0.57447793  0.13324714  0.15049021     0.12840
C871        C  0.58860167  0.16989798  0.22364850     0.62370
F872        F  0.89538527  0.23527731  0.13622423    -0.22800
F873        F  0.89921671  0.16281277  0.11667107    -0.20130
F874        F  0.94007097  0.21329798  0.08310339    -0.19810
F875        F  0.57931874  0.14632886  0.25790505    -0.19860
F876        F  0.60324812  0.21157492  0.23444557    -0.20180
F877        F  0.62503201  0.14615602  0.20316787    -0.22860
C878        C  0.98074280  0.14337414  0.33746423    -0.05690
C879        C  0.01468036  0.15378722  0.36530887     0.00230
C880        C  0.54487063  0.18797529  0.35589218    -0.08340
C881        C  0.54075406  0.20933463  0.31818047    -0.05710
C882        C  0.00619265  0.19953727  0.29031235     0.00220
C883        C  0.97572999  0.16547991  0.30015705    -0.08250
C884        C  0.93720634  0.15265082  0.27237280     0.62130
H885        H  0.95797393  0.11724015  0.34532663     0.12830
H886        H  0.56461115  0.23438731  0.31013674     0.12840
C887        C  0.58006216  0.20354535  0.38574391     0.62370
F888        F  0.90886045  0.12299644  0.29059936    -0.22800
F889        F  0.95618146  0.13121632  0.23822360    -0.20130
F890        F  0.90953021  0.19087358  0.26191412    -0.19810
F891        F  0.61717453  0.17130439  0.38833384    -0.19860
F892        F  0.55931896  0.21060855  0.42332451    -0.20180
F893        F  0.59747836  0.24381298  0.37410947    -0.22860
C894        C  0.53126567  0.29363141  0.18707651    -0.05690
C895        C  0.99408711  0.30049708  0.21477286     0.00230
C896        C  0.95484239  0.32988692  0.20423227    -0.08340
C897        C  0.95518996  0.35210652  0.16681414    -0.05710
C898        C  0.99243659  0.34487053  0.13909298     0.00220
C899        C  0.53055761  0.31363664  0.14892328    -0.08250
C900        C  0.57007074  0.29982934  0.11945056     0.62130
H901        H  0.56105117  0.27159414  0.19548848     0.12830
H902        H  0.92624042  0.37581342  0.15918909     0.12840
C903        C  0.91230895  0.33746803  0.23169380     0.62370
F904        F  0.59772398  0.26272247  0.13276632    -0.22800
F905        F  0.59834246  0.33506871  0.11481100    -0.20130
F906        F  0.55215375  0.28818222  0.08259538    -0.19810
F907        F  0.89698023  0.29636319  0.24326847    -0.19860
F908        F  0.87567740  0.36141162  0.21272542    -0.20180
F909        F  0.92341034  0.36196099  0.26537661    -0.22860
C910        C  0.52307740  0.34946447  0.34306425    -0.05690
C911        C  0.98848152  0.33877448  0.37078109     0.00230
C912        C  0.95656319  0.30673608  0.35983140    -0.08340
C913        C  0.95897626  0.28853371  0.32055547    -0.05710
C914        C  0.99379577  0.29890091  0.29274686     0.00220
C915        C  0.52680653  0.32983120  0.30431608    -0.08250
C916        C  0.56667522  0.34153445  0.27679058     0.62130
H917        H  0.54729431  0.37384697  0.35203771     0.12830
H918        H  0.93405856  0.26491666  0.31143562     0.12840
C919        C  0.92137376  0.28974684  0.38943527     0.62370
F920        F  0.54936075  0.36655176  0.24459709    -0.22800
F921        F  0.59110882  0.30240380  0.26294499    -0.20130
F922        F  0.59799682  0.36703181  0.29650799    -0.19810
F923        F  0.88319631  0.32079764  0.39286549    -0.19860
F924        F  0.94131041  0.28278020  0.42683773    -0.20180
F925        F  0.90576272  0.24895389  0.37673849    -0.22860
C926        C  0.86662169  0.51391259  0.90393858     0.42540
N927        N  0.90276065  0.49252901  0.95780409     0.01430
C928        C  0.54869353  0.10983064  0.57661265    -0.06440
H929        H  0.59123804  0.10451921  0.91809743     0.06930
C930        C  0.61527586  0.43961879  0.92556910    -0.06790
Co931      Co  0.94670248  0.06793486  0.99939103     0.74180
N932        N  0.53533880  0.08586170  0.95665293    -0.25970
Co933      Co  0.56699264  0.04581302  0.00172655     0.74070
C934        C  0.63714956  0.47669916  0.90574690     0.42650
N935        N  0.51203583  0.40145816  0.95954971     0.01050
N936        N  0.59922594  0.00239401  0.95832816     0.01160
N937        N  0.97043013  0.12325612  0.57407346    -0.46820
H938        H  0.88587884  0.08757818  0.91303818     0.06910
N939        N  0.98962540  0.09400654  0.95547274     0.01440
N940        N  0.59762036  0.00432792  0.54624713     0.01180
C941        C  0.63679416  0.97815666  0.59654444     0.42790
N942        N  0.96629354  0.40893673  0.96106189    -0.25430
C943        C  0.87797277  0.06233362  0.57188601    -0.06350
N944        N  0.87794733  0.47808105  0.92766054    -0.46530
N945        N  0.62313304  0.01663418  0.57692324    -0.46760
C946        C  0.85583042  0.02651854  0.59273541     0.42560
N947        N  0.98645710  0.09666687  0.54393002     0.01430
N948        N  0.96628353  0.41366955  0.54879270    -0.25450
N949        N  0.90859707  0.03619740  0.95563750    -0.25940
N950        N  0.51200433  0.40495733  0.54764617     0.01070
H951        H  0.91281361  0.39412591  0.58989257     0.06960
H952        H  0.61965055  0.40546076  0.58281013     0.06990
N953        N  0.53214941  0.08798561  0.54490643    -0.25990
N954        N  0.59292773  0.45878864  0.95780021    -0.25600
N955        N  0.90032242  0.49718438  0.54564856     0.01430
C956        C  0.01504727  0.12950944  0.90439207     0.42830
C957        C  0.94789781  0.38500449  0.93169705    -0.06850
N958        N  0.59313094  0.46036210  0.54532002    -0.25600
H959        H  0.61485454  0.40449464  0.91715297     0.06980
N960        N  0.97602480  0.11959690  0.92457528    -0.46820
H961        H  0.91120671  0.38498100  0.92584984     0.06970
C962        C  0.49021208  0.37056360  0.60061083     0.42670
C963        C  0.88681891  0.05279995  0.92272955    -0.06350
Co964      Co  0.93301764  0.45249769  0.50361416     0.73820
N965        N  0.52646510  0.37390308  0.92956224    -0.46540
C966        C  0.50756072  0.13351190  0.59604746     0.42930
N967        N  0.87210405  0.48691678  0.57545089    -0.46530
Co968      Co  0.55315196  0.43054633  0.50233484     0.73890
C969        C  0.61709745  0.44096684  0.57575180    -0.06860
C970        C  0.55448751  0.10655294  0.92539925    -0.06420
N971        N  0.90471365  0.04105364  0.54320336    -0.25950
N972        N  0.62507176  0.01447046  0.92768699    -0.46710
H973        H  0.58500950  0.10897906  0.58488123     0.06940
C974        C  0.94924965  0.39337468  0.58127269    -0.06830
Cl975      Cl  0.49992735  0.99923869  0.50181742    -0.49840
C976        C  0.98782642  0.36173522  0.91068288     0.42690
H977        H  0.87417587  0.09836096  0.57715767     0.06910
N978        N  0.52755787  0.37978454  0.57806601    -0.46550
C979        C  0.99666193  0.27369752  0.75319649     0.00650
C980        C  0.00216801  0.22690647  0.75202061     0.00650
C981        C  0.77044420  0.51166421  0.75032714     0.00650
C982        C  0.72706847  0.49386101  0.74962876     0.00650
C983        C  0.70142348  0.95473506  0.64191647    -0.05690
C984        C  0.65669280  0.47627958  0.63710426     0.00230
C985        C  0.63145190  0.49318751  0.67146489    -0.08340
C986        C  0.65496627  0.49486490  0.70803680    -0.05710
C987        C  0.70244107  0.48018796  0.71185971     0.00220
C988        C  0.72380326  0.95412007  0.67948620    -0.08250
C989        C  0.76761274  0.92271367  0.68329752     0.62130
H990        H  0.71883691  0.93772387  0.61623111     0.12830
H991        H  0.63531743  0.50817349  0.73373696     0.12840
C992        C  0.57982582  0.50899861  0.67225089     0.62370
F993        F  0.75761200  0.37938166  0.67237385    -0.22800
F994        F  0.78438944  0.42086342  0.72203461    -0.20130
F995        F  0.80197413  0.93621284  0.65763022    -0.19810
F996        F  0.55723264  0.48436602  0.70068740    -0.19860
F997        F  0.55784223  0.00376554  0.63592717    -0.20180
F998        F  0.57472578  0.55417780  0.68327726    -0.22860
C999        C  0.70711557  0.44788381  0.80880851    -0.05690
C1000       C  0.70089599  0.48924962  0.78854733     0.00230
C1001       C  0.67178489  0.52505465  0.80632928    -0.08340
C1002       C  0.65137216  0.51836996  0.84401694    -0.05710
C1003       C  0.65946494  0.47799061  0.86530109     0.00220
C1004       C  0.68881449  0.94219873  0.84784510    -0.08250
C1005       C  0.70307882  0.89906675  0.87027611     0.62130
H1006       H  0.72790818  0.92030133  0.79425671     0.12830
H1007       H  0.62820889  0.54546338  0.85688888     0.12840
C1008       C  0.65676777  0.56944938  0.78629492     0.62370
F1009       F  0.74243796  0.37651339  0.85302606    -0.22800
F1010       F  0.66739737  0.37042823  0.86908604    -0.20130
F1011       F  0.71354779  0.90879637  0.90985563    -0.19810
F1012       F  0.60933437  0.56996832  0.77980743    -0.19860
F1013       F  0.67887977  0.07573243  0.74991475    -0.20180
F1014       F  0.66481828  0.10526107  0.81154849    -0.22860
C1015       C  0.77039484  0.54333133  0.68034717    -0.05690
C1016       C  0.79691230  0.52335010  0.71210630     0.00230
C1017       C  0.84632876  0.51370770  0.70496246    -0.08340
C1018       C  0.86369131  0.51683054  0.66535512    -0.05710
C1019       C  0.83504629  0.52992246  0.63339841     0.00220
C1020       C  0.78806074  0.54473830  0.64068237    -0.08250
C1021       C  0.75641864  0.55939692  0.60618401     0.62130
H1022       H  0.73446988  0.55524759  0.68619672     0.12830
H1023       H  0.90002820  0.50735973  0.65831789     0.12840
C1024       C  0.88209845  0.49905792  0.73677788     0.62370
F1025       F  0.75486256  0.52407147  0.57880660    -0.22800
F1026       F  0.77354023  0.59603510  0.58702823    -0.20130
F1027       F  0.71130004  0.07171402  0.61929575    -0.19810
F1028       F  0.87396908  0.45673358  0.75079142    -0.19860
F1029       F  0.88114223  0.03034515  0.76782203    -0.20180
F1030       F  0.92737800  0.99605371  0.72164700    -0.22860
C1031       C  0.82191961  0.05381437  0.84912957    -0.05690
C1032       C  0.84019664  0.51255491  0.86548662     0.00230
C1033       C  0.83371418  0.47171943  0.84412890    -0.08340
C1034       C  0.80886829  0.47407144  0.80813992    -0.05710
C1035       C  0.79316050  0.51512125  0.79056666     0.00220
C1036       C  0.79890282  0.05605161  0.81183130    -0.08250
C1037       C  0.78204276  0.10275326  0.79730724     0.62130
H1038       H  0.82601108  0.08508919  0.86534951     0.12830
H1039       H  0.80351824  0.44326292  0.79185007     0.12840
C1040       C  0.85478089  0.42569513  0.85715781     0.62370
F1041       F  0.81926969  0.12931242  0.79432203    -0.22800
F1042       F  0.75062469  0.12270758  0.82514707    -0.20130
F1043       F  0.76101753  0.10231746  0.76023683    -0.19810
F1044       F  0.83488743  0.41394360  0.89332319    -0.19860
F1045       F  0.90249886  0.42726981  0.86073891    -0.20180
F1046       F  0.84739926  0.39177486  0.82949754    -0.22860
C1047       C  0.96636816  0.20872310  0.68615822    -0.05690
C1048       C  0.00455283  0.20228675  0.71209438     0.00230
C1049       C  0.54483126  0.17564289  0.69850429    -0.08340
C1050       C  0.54425467  0.15441728  0.66042057    -0.05710
C1051       C  0.00538988  0.15939476  0.63502592     0.00220
C1052       C  0.96629411  0.18870375  0.64757138    -0.08250
C1053       C  0.92482964  0.20010693  0.62059049     0.62130
H1054       H  0.93630687  0.22993831  0.69657174     0.12830
H1055       H  0.57447804  0.13324641  0.65049074     0.12840
C1056       C  0.58860170  0.16989769  0.72364889     0.62370
F1057       F  0.89538609  0.23527781  0.63622371    -0.22800
F1058       F  0.89921699  0.16281323  0.61667069    -0.20130
F1059       F  0.94007195  0.21329797  0.58310311    -0.19810
F1060       F  0.57931861  0.14632872  0.75790549    -0.19860
F1061       F  0.60324824  0.21157463  0.73444584    -0.20180
F1062       F  0.62503205  0.14615557  0.70316840    -0.22860
C1063       C  0.98074229  0.14337466  0.83746429    -0.05690
C1064       C  0.01468006  0.15378747  0.86530883     0.00230
C1065       C  0.54487039  0.18797529  0.85589213    -0.08340
C1066       C  0.54075403  0.20933460  0.81818042    -0.05710
C1067       C  0.00619261  0.19953742  0.79031230     0.00220
C1068       C  0.97572956  0.16548046  0.80015712    -0.08250
C1069       C  0.93720556  0.15265189  0.77237302     0.62130
H1070       H  0.95797320  0.11724088  0.84532673     0.12830
H1071       H  0.56461138  0.23438702  0.81013664     0.12840
C1072       C  0.58006211  0.20354509  0.88574382     0.62370
F1073       F  0.90885919  0.12299808  0.79059977    -0.22800
F1074       F  0.95618026  0.13121701  0.73822383    -0.20130
F1075       F  0.90953000  0.19087498  0.76191428    -0.19810
F1076       F  0.61717447  0.17130409  0.88833342    -0.19860
F1077       F  0.55931914  0.21060806  0.92332454    -0.20180
F1078       F  0.59747825  0.24381280  0.87410952    -0.22860
C1079       C  0.53126592  0.29363144  0.68707648    -0.05690
C1080       C  0.99408728  0.30049711  0.71477280     0.00230
C1081       C  0.95484258  0.32988702  0.70423226    -0.08340
C1082       C  0.95519013  0.35210658  0.66681413    -0.05710
C1083       C  0.99243670  0.34487051  0.63909293     0.00220
C1084       C  0.53055788  0.31363666  0.64892324    -0.08250
C1085       C  0.57007101  0.29982935  0.61945053     0.62130
H1086       H  0.56105138  0.27159412  0.69548845     0.12830
H1087       H  0.92624062  0.37581352  0.65918911     0.12840
C1088       C  0.91230920  0.33746825  0.73169384     0.62370
F1089       F  0.59772428  0.26272251  0.63276632    -0.22800
F1090       F  0.59834271  0.33506873  0.61481095    -0.20130
F1091       F  0.55215403  0.28818218  0.58259536    -0.19810
F1092       F  0.89698038  0.29636346  0.74326853    -0.19860
F1093       F  0.87567767  0.36141195  0.71272551    -0.20180
F1094       F  0.92341072  0.36196119  0.76537663    -0.22860
C1095       C  0.52307761  0.34946450  0.84306423    -0.05690
C1096       C  0.98848169  0.33877455  0.87078098     0.00230
C1097       C  0.95656331  0.30673620  0.85983127    -0.08340
C1098       C  0.95897638  0.28853384  0.82055535    -0.05710
C1099       C  0.99379595  0.29890096  0.79274677     0.00220
C1100       C  0.52680678  0.32983123  0.80431608    -0.08250
C1101       C  0.56667558  0.34153436  0.77679065     0.62130
H1102       H  0.54729457  0.37384694  0.85203775     0.12830
H1103       H  0.93405862  0.26491685  0.81143548     0.12840
C1104       C  0.92137383  0.28974700  0.88943512     0.62370
F1105       F  0.54936125  0.36655171  0.74459712    -0.22800
F1106       F  0.59110910  0.30240365  0.76294510    -0.20130
F1107       F  0.59799721  0.36703164  0.79650810    -0.19810
F1108       F  0.88319637  0.32079782  0.89286526    -0.19860
F1109       F  0.94131041  0.28278041  0.92683761    -0.20180
F1110       F  0.90576281  0.24895404  0.87673835    -0.22860
C1111       C  0.86662087  0.01391228  0.40393855     0.42540
N1112       N  0.90275970  0.99252877  0.45780414     0.01430
C1113       C  0.54869412  0.60983123  0.07661237    -0.06440
H1114       H  0.59123918  0.60451931  0.41809741     0.06930
C1115       C  0.61527506  0.93961848  0.42556902    -0.06790
Co1116     Co  0.94670339  0.56793507  0.49939105     0.74180
N1117       N  0.53533992  0.58586182  0.45665293    -0.25970
Co1118     Co  0.56699368  0.54581309  0.50172656     0.74070
C1119       C  0.63714883  0.97669881  0.40574687     0.42650
N1120       N  0.51203501  0.90145794  0.45954965     0.01050
N1121       N  0.59922690  0.50239401  0.45832819     0.01160
N1122       N  0.97043096  0.62325659  0.07407325    -0.46820
H1123       H  0.88587999  0.58757851  0.41303820     0.06910
N1124       N  0.98962637  0.59400667  0.45547275     0.01440
N1125       N  0.59762095  0.50432844  0.04624711     0.01180
C1126       C  0.63679461  0.47815746  0.09654456     0.42790
N1127       N  0.96629251  0.90893645  0.46106191    -0.25430
C1128       C  0.87797372  0.56233382  0.07188600    -0.06350
N1129       N  0.87794644  0.97808078  0.42766057    -0.46530
N1130       N  0.62313353  0.51663487  0.07692320    -0.46760
C1131       C  0.85583152  0.52651870  0.09273547     0.42560
N1132       N  0.98645794  0.59666725  0.04392988     0.01430
N1133       N  0.96628292  0.91366938  0.04879265    -0.25450
N1134       N  0.90859796  0.53619769  0.45563754    -0.25940
N1135       N  0.51200345  0.90495724  0.04764615     0.01070
H1136       H  0.91281302  0.89412566  0.08989251     0.06960
H1137       H  0.61964980  0.90546065  0.08280994     0.06990
N1138       N  0.53214999  0.58798605  0.04490626    -0.25990
N1139       N  0.59292698  0.95878833  0.45780014    -0.25600
N1140       N  0.90032165  0.99718408  0.04564849     0.01430
C1141       C  0.01504830  0.62950954  0.40439209     0.42830
C1142       C  0.94789676  0.88500414  0.43169712    -0.06850
N1143       N  0.59313003  0.96036205  0.04531999    -0.25600
H1144       H  0.61485367  0.90449434  0.41715286     0.06980
N1145       N  0.97602581  0.61959705  0.42457529    -0.46820
H1146       H  0.91120565  0.88498061  0.42584996     0.06970
C1147       C  0.49021122  0.87056350  0.10061081     0.42670
C1148       C  0.88681992  0.55280029  0.42272956    -0.06350
Co1149     Co  0.93301697  0.95249744  0.00361410     0.73820
N1150       N  0.52646423  0.87390281  0.42956221    -0.46540
C1151       C  0.50756130  0.63351251  0.09604716     0.42930
N1152       N  0.87210335  0.98691641  0.07545085    -0.46530
Co1153     Co  0.55315109  0.93054627  0.00233484     0.73890
C1154       C  0.61709663  0.94096674  0.07575168    -0.06860
C1155       C  0.55448865  0.60655305  0.42539926    -0.06420
N1156       N  0.90471458  0.54105390  0.04320331    -0.25950
N1157       N  0.62507273  0.51447043  0.42768701    -0.46710
H1158       H  0.58501010  0.60897974  0.08488089     0.06940
C1159       C  0.94924907  0.89337449  0.08127264    -0.06830
Cl1160     Cl  0.49992803  0.49923897  0.00181739    -0.49840
C1161       C  0.98782536  0.86173488  0.41068293     0.42690
H1162       H  0.87417676  0.59836116  0.07715765     0.06910
N1163       N  0.52755701  0.87978450  0.07806601    -0.46550
C1164       C  0.99666182  0.77369745  0.25319649     0.00650
C1165       C  0.00216835  0.72690641  0.25202055     0.00650
C1166       C  0.77044348  0.01166336  0.25032708     0.00650
C1167       C  0.72706774  0.99386019  0.24962868     0.00650
C1168       C  0.70142379  0.45473565  0.14191659    -0.05690
C1169       C  0.65669207  0.97627933  0.13710413     0.00230
C1170       C  0.63145110  0.99318687  0.17146485    -0.08340
C1171       C  0.65496547  0.99486407  0.20803678    -0.05710
C1172       C  0.70244031  0.98018724  0.21185961     0.00220
C1173       C  0.72380361  0.45412066  0.17948629    -0.08250
C1174       C  0.76761280  0.42271385  0.18329768     0.62130
H1175       H  0.71883699  0.43772410  0.11623131     0.12830
H1176       H  0.63531660  0.00817240  0.23373702     0.12840
C1177       C  0.57982496  0.00899771  0.17225096     0.62370
F1178       F  0.75761115  0.87938115  0.17237338    -0.22800
F1179       F  0.78438864  0.92086263  0.22203431    -0.20130
F1180       F  0.80197431  0.43621258  0.15763028    -0.19810
F1181       F  0.55723193  0.98436470  0.20068725    -0.19860
F1182       F  0.55784295  0.50376755  0.13592729    -0.20180
F1183       F  0.57472466  0.05417680  0.18327769    -0.22860
C1184       C  0.70711476  0.94788315  0.30880851    -0.05690
C1185       C  0.70089522  0.98924891  0.28854725     0.00230
C1186       C  0.67178419  0.02505403  0.30632914    -0.08340
C1187       C  0.65137149  0.01836948  0.34401684    -0.05710
C1188       C  0.65946425  0.97799018  0.36530107     0.00220
C1189       C  0.68881450  0.44219853  0.34784450    -0.08250
C1190       C  0.70307801  0.39906594  0.37027489     0.62130
H1191       H  0.72790757  0.42030124  0.29425575     0.12830
H1192       H  0.62820825  0.04546295  0.35688874     0.12840
C1193       C  0.65676710  0.06944869  0.28629466     0.62370
F1194       F  0.74243739  0.87651306  0.35302634    -0.22800
F1195       F  0.66739681  0.87042772  0.36908623    -0.20130
F1196       F  0.71354738  0.40879463  0.40985452    -0.19810
F1197       F  0.60933370  0.06996762  0.27980718    -0.19860
F1198       F  0.67888182  0.57573363  0.24991564    -0.20180
F1199       F  0.66482145  0.60526165  0.31154977    -0.22860
C1200       C  0.77039422  0.04333076  0.18034725    -0.05690
C1201       C  0.79691161  0.02334921  0.21210627     0.00230
C1202       C  0.84632801  0.01370648  0.20496237    -0.08340
C1203       C  0.86369059  0.01682961  0.16535508    -0.05710
C1204       C  0.83504563  0.02992194  0.13339845     0.00220
C1205       C  0.78806014  0.04473794  0.14068247    -0.08250
C1206       C  0.75641808  0.05939694  0.10618418     0.62130
H1207       H  0.73446929  0.05524710  0.18619684     0.12830
H1208       H  0.90002744  0.00735865  0.15831781     0.12840
C1209       C  0.88209753  0.99905589  0.23677768     0.62370
F1210       F  0.75486188  0.02407173  0.07880655    -0.22800
F1211       F  0.77353982  0.09603521  0.08702864    -0.20130
F1212       F  0.71130168  0.57171594  0.11929625    -0.19810
F1213       F  0.87396743  0.95673163  0.25079097    -0.19860
F1214       F  0.88114432  0.53034082  0.26782200    -0.20180
F1215       F  0.92737830  0.49604782  0.22164647    -0.22860
C1216       C  0.82192157  0.55381490  0.34912901    -0.05690
C1217       C  0.84019590  0.01255449  0.36548654     0.00230
C1218       C  0.83371333  0.97171892  0.34412898    -0.08340
C1219       C  0.80886741  0.97407081  0.30814002    -0.05710
C1220       C  0.79315973  0.01512055  0.29056660     0.00220
C1221       C  0.79890479  0.55605209  0.31183073    -0.08250
C1222       C  0.78204570  0.60275381  0.29730615     0.62130
H1223       H  0.82601379  0.58508983  0.36534854     0.12830
H1224       H  0.80351724  0.94326223  0.29185031     0.12840
C1225       C  0.85477999  0.92569466  0.35715802     0.62370
F1226       F  0.81927328  0.62931208  0.29432038    -0.22800
F1227       F  0.75062820  0.62270923  0.32514588    -0.20130
F1228       F  0.76102018  0.60231791  0.26023587    -0.19810
F1229       F  0.83488652  0.91394327  0.39332343    -0.19860
F1230       F  0.90249797  0.92726931  0.36073908    -0.20180
F1231       F  0.84739832  0.89177430  0.32949785    -0.22860
C1232       C  0.96636855  0.70872298  0.18615823    -0.05690
C1233       C  0.00455336  0.70228690  0.21209426     0.00230
C1234       C  0.54483190  0.67564363  0.19850390    -0.08340
C1235       C  0.54425543  0.65441830  0.16042006    -0.05710
C1236       C  0.00539066  0.65939537  0.13502562     0.00220
C1237       C  0.96629462  0.68870387  0.14757130    -0.08250
C1238       C  0.92482993  0.70010679  0.12059058     0.62130
H1239       H  0.93630705  0.72993778  0.19657193     0.12830
H1240       H  0.57447906  0.63324795  0.15049000     0.12840
C1241       C  0.58860244  0.66989871  0.22364840     0.62370
F1242       F  0.89538617  0.73527740  0.13622397    -0.22800
F1243       F  0.89921761  0.66281286  0.11667083    -0.20130
F1244       F  0.94007191  0.71329806  0.08310318    -0.19810
F1245       F  0.57931966  0.64632948  0.25790491    -0.19860
F1246       F  0.60324858  0.71157576  0.23444553    -0.20180
F1247       F  0.62503296  0.64615700  0.20316778    -0.22860
C1248       C  0.98074391  0.64337378  0.33746397    -0.05690
C1249       C  0.01468111  0.65378735  0.36530875     0.00230
C1250       C  0.54487092  0.68797570  0.35589215    -0.08340
C1251       C  0.54075433  0.70933497  0.31818043    -0.05710
C1252       C  0.00619331  0.69953721  0.29031219     0.00220
C1253       C  0.97573109  0.66547941  0.30015673    -0.08250
C1254       C  0.93720791  0.65264967  0.27237226     0.62130
H1255       H  0.95797534  0.61723953  0.34532631     0.12830
H1256       H  0.56461120  0.73438787  0.31013677     0.12840
C1257       C  0.58006216  0.70354606  0.38574401     0.62370
F1258       F  0.90886252  0.62299469  0.29059861    -0.22800
F1259       F  0.95618361  0.63121553  0.23822311    -0.20130
F1260       F  0.90953117  0.69087201  0.26191353    -0.19810
F1261       F  0.61717466  0.67130529  0.38833421    -0.19860
F1262       F  0.55931867  0.71060930  0.42332450    -0.20180
F1263       F  0.59747821  0.74381375  0.37410954    -0.22860
C1264       C  0.53126549  0.79363165  0.18707647    -0.05690
C1265       C  0.99408702  0.80049709  0.21477282     0.00230
C1266       C  0.95484213  0.82988672  0.20423222    -0.08340
C1267       C  0.95518958  0.85210631  0.16681409    -0.05710
C1268       C  0.99243620  0.84487043  0.13909291     0.00220
C1269       C  0.53055721  0.81363668  0.14892317    -0.08250
C1270       C  0.57007018  0.79982925  0.11945033     0.62130
H1271       H  0.56105113  0.77159458  0.19548845     0.12830
H1272       H  0.92623993  0.87581308  0.15918904     0.12840
C1273       C  0.91230867  0.83746765  0.23169374     0.62370
F1274       F  0.59772340  0.76272235  0.13276607    -0.22800
F1275       F  0.59834197  0.83506854  0.11481061    -0.20130
F1276       F  0.55215300  0.78818209  0.08259524    -0.19810
F1277       F  0.89698016  0.79636271  0.24326842    -0.19860
F1278       F  0.87567700  0.86141108  0.21272536    -0.20180
F1279       F  0.92340993  0.86196068  0.26537656    -0.22860
C1280       C  0.52307653  0.84946475  0.34306418    -0.05690
C1281       C  0.98848070  0.83877440  0.37078096     0.00230
C1282       C  0.95656266  0.80673574  0.35983121    -0.08340
C1283       C  0.95897603  0.78853333  0.32055530    -0.05710
C1284       C  0.99379550  0.79890084  0.29274677     0.00220
C1285       C  0.52680589  0.82983151  0.30431603    -0.08250
C1286       C  0.56667449  0.84153511  0.27679058     0.62130
H1287       H  0.54729322  0.87384744  0.35203770     0.12830
H1288       H  0.93405861  0.76491602  0.31143539     0.12840
C1289       C  0.92137327  0.78974633  0.38943501     0.62370
F1290       F  0.54935986  0.86655232  0.24459708    -0.22800
F1291       F  0.59110843  0.80240464  0.26294499    -0.20130
F1292       F  0.59799583  0.86703273  0.29650804    -0.19810
F1293       F  0.88319589  0.82079718  0.39286550    -0.19860
F1294       F  0.94131004  0.78277936  0.42683738    -0.20180
F1295       F  0.90576208  0.74895353  0.37673801    -0.22860
C1296       C  0.86662086  0.01391206  0.90393857     0.42540
N1297       N  0.90275982  0.99252867  0.95780412     0.01430
C1298       C  0.54869415  0.60983122  0.57661241    -0.06440
H1299       H  0.59123922  0.60451925  0.91809748     0.06930
C1300       C  0.61527506  0.93961878  0.92556912    -0.06790
Co1301     Co  0.94670347  0.56793506  0.99939102     0.74180
N1302       N  0.53533991  0.58586178  0.95665293    -0.25970
Co1303     Co  0.56699363  0.54581305  0.00172657     0.74070
C1304       C  0.63714871  0.97669914  0.90574690     0.42650
N1305       N  0.51203510  0.90145807  0.95954973     0.01050
N1306       N  0.59922687  0.50239397  0.95832823     0.01160
N1307       N  0.97043086  0.62325658  0.57407334    -0.46820
H1308       H  0.88587989  0.58757862  0.91303828     0.06910
N1309       N  0.98962648  0.59400666  0.95547272     0.01440
N1310       N  0.59762103  0.50432848  0.54624708     0.01180
C1311       C  0.63679468  0.47815751  0.59654456     0.42790
N1312       N  0.96629293  0.90893655  0.96106194    -0.25430
C1313       C  0.87797350  0.56233393  0.57188591    -0.06350
N1314       N  0.87794658  0.97808059  0.92766058    -0.46530
N1315       N  0.62313359  0.51663492  0.57692319    -0.46760
C1316       C  0.85583124  0.52651887  0.59273540     0.42560
N1317       N  0.98645785  0.59666728  0.54392993     0.01430
N1318       N  0.96628257  0.91366922  0.54879261    -0.25450
N1319       N  0.90859801  0.53619772  0.95563750    -0.25940
N1320       N  0.51200345  0.90495700  0.54764605     0.01070
H1321       H  0.91281268  0.89412562  0.58989255     0.06960
H1322       H  0.61964982  0.90546001  0.58280984     0.06990
N1323       N  0.53215003  0.58798607  0.54490627    -0.25990
N1324       N  0.59292688  0.95878866  0.95780018    -0.25600
N1325       N  0.90032152  0.99718409  0.54564851     0.01430
C1326       C  0.01504846  0.62950957  0.90439209     0.42830
C1327       C  0.94789729  0.88500421  0.93169711    -0.06850
N1328       N  0.59313020  0.96036155  0.54531996    -0.25600
H1329       H  0.61485380  0.90449461  0.91715301     0.06980
N1330       N  0.97602596  0.61959707  0.92457528    -0.46820
H1331       H  0.91120621  0.88498061  0.92584988     0.06970
C1332       C  0.49021120  0.87056326  0.60061069     0.42670
C1333       C  0.88681987  0.55280038  0.92272959    -0.06350
Co1334     Co  0.93301671  0.95249741  0.50361410     0.73820
N1335       N  0.52646447  0.87390301  0.92956228    -0.46540
C1336       C  0.50756133  0.63351245  0.59604724     0.42930
N1337       N  0.87210313  0.98691647  0.57545083    -0.46530
Co1338     Co  0.55315113  0.93054597  0.50233477     0.73890
C1339       C  0.61709678  0.94096612  0.57575162    -0.06860
C1340       C  0.55448868  0.60655302  0.92539928    -0.06420
N1341       N  0.90471447  0.54105394  0.54320334    -0.25950
N1342       N  0.62507271  0.51447043  0.92768708    -0.46710
H1343       H  0.58501014  0.60897973  0.58488093     0.06940
C1344       C  0.94924872  0.89337435  0.58127261    -0.06830
Cl1345     Cl  0.49992809  0.49923899  0.50181741    -0.49840
C1346       C  0.98782598  0.86173507  0.91068295     0.42690
H1347       H  0.87417647  0.59836129  0.57715745     0.06910
N1348       N  0.52755698  0.87978418  0.57806586    -0.46550
C1349       C  0.99666215  0.77369759  0.75319654     0.00650
C1350       C  0.00216861  0.72690655  0.75202061     0.00650
C1351       C  0.77044347  0.01166321  0.75032709     0.00650
C1352       C  0.72706780  0.99385987  0.74962871     0.00650
C1353       C  0.70142384  0.45473585  0.64191669    -0.05690
C1354       C  0.65669229  0.97627850  0.63710415     0.00230
C1355       C  0.63145118  0.99318578  0.67146489    -0.08340
C1356       C  0.65496549  0.99486298  0.70803685    -0.05710
C1357       C  0.70244045  0.98018661  0.71185966     0.00220
C1358       C  0.72380366  0.45412102  0.67948639    -0.08250
C1359       C  0.76761299  0.42271443  0.68329781     0.62130
H1360       H  0.71883711  0.43772431  0.61623143     0.12830
H1361       H  0.63531647  0.00817101  0.73373712     0.12840
C1362       C  0.57982499  0.00899642  0.67225094     0.62370
F1363       F  0.75761201  0.87938090  0.67237332    -0.22800
F1364       F  0.78438911  0.92086250  0.72203435    -0.20130
F1365       F  0.80197442  0.43621327  0.65763038    -0.19810
F1366       F  0.55723202  0.98436328  0.70068718    -0.19860
F1367       F  0.55784294  0.50376752  0.63592721    -0.20180
F1368       F  0.57472449  0.05417550  0.68327770    -0.22860
C1369       C  0.70711523  0.94788326  0.80880893    -0.05690
C1370       C  0.70089527  0.98924875  0.78854730     0.00230
C1371       C  0.67178381  0.02505380  0.80632886    -0.08340
C1372       C  0.65137108  0.01836942  0.84401658    -0.05710
C1373       C  0.65946422  0.97799040  0.86530115     0.00220
C1374       C  0.68881480  0.44219889  0.84784461    -0.08250
C1375       C  0.70307859  0.39906641  0.87027507     0.62130
H1376       H  0.72790825  0.42030191  0.79425597     0.12830
H1377       H  0.62820752  0.04546280  0.85688824     0.12840
C1378       C  0.65676638  0.06944816  0.78629401     0.62370
F1379       F  0.74243862  0.87651407  0.85302750    -0.22800
F1380       F  0.66739812  0.87042796  0.86908726    -0.20130
F1381       F  0.71354798  0.40879529  0.90985465    -0.19810
F1382       F  0.60933304  0.06996660  0.77980632    -0.19860
F1383       F  0.67888102  0.57573391  0.74991565    -0.20180
F1384       F  0.66482015  0.60526185  0.81154974    -0.22860
C1385       C  0.77039393  0.04333042  0.68034714    -0.05690
C1386       C  0.79691150  0.02334933  0.71210627     0.00230
C1387       C  0.84632803  0.01370737  0.70496246    -0.08340
C1388       C  0.86369056  0.01683035  0.66535513    -0.05710
C1389       C  0.83504547  0.02992206  0.63339841     0.00220
C1390       C  0.78805983  0.04473757  0.64068235    -0.08250
C1391       C  0.75641768  0.05939606  0.60618399     0.62130
H1392       H  0.73446888  0.05524642  0.68619666     0.12830
H1393       H  0.90002751  0.00735980  0.65831791     0.12840
C1394       C  0.88209783  0.99905795  0.73677789     0.62370
F1395       F  0.75486183  0.02407062  0.57880654    -0.22800
F1396       F  0.77353908  0.09603437  0.58702825    -0.20130
F1397       F  0.71130105  0.57171512  0.61929578    -0.19810
F1398       F  0.87396896  0.95673347  0.75079140    -0.19860
F1399       F  0.88114322  0.53034512  0.76782200    -0.20180
F1400       F  0.92737861  0.49605318  0.72164696    -0.22860
C1401       C  0.82192079  0.55381516  0.84912951    -0.05690
C1402       C  0.84019585  0.01255422  0.86548659     0.00230
C1403       C  0.83371382  0.97171871  0.84412877    -0.08340
C1404       C  0.80886794  0.97407058  0.80813977    -0.05710
C1405       C  0.79315976  0.01512033  0.79056661     0.00220
C1406       C  0.79890400  0.55605251  0.81183124    -0.08250
C1407       C  0.78204443  0.60275426  0.79730705     0.62130
H1408       H  0.82601259  0.58508996  0.86534936     0.12830
H1409       H  0.80351819  0.94326204  0.79184986     0.12840
C1410       C  0.85478094  0.92569454  0.85715762     0.62370
F1411       F  0.81927168  0.62931300  0.79432168    -0.22800
F1412       F  0.75062661  0.62270902  0.82514686    -0.20130
F1413       F  0.76101911  0.60231854  0.76023668    -0.19810
F1414       F  0.83488748  0.91394272  0.89332291    -0.19860
F1415       F  0.90249885  0.92726966  0.86073886    -0.20180
F1416       F  0.84739975  0.89177426  0.82949725    -0.22860
C1417       C  0.96636859  0.70872298  0.68615840    -0.05690
C1418       C  0.00455347  0.70228695  0.71209436     0.00230
C1419       C  0.54483210  0.67564367  0.69850392    -0.08340
C1420       C  0.54425555  0.65441831  0.66042009    -0.05710
C1421       C  0.00539059  0.65939532  0.63502574     0.00220
C1422       C  0.96629452  0.68870375  0.64757151    -0.08250
C1423       C  0.92482964  0.70010642  0.62059096     0.62130
H1424       H  0.93630713  0.72993782  0.69657213     0.12830
H1425       H  0.57447918  0.63324800  0.65048998     0.12840
C1426       C  0.58860273  0.66989885  0.72364831     0.62370
F1427       F  0.89538572  0.73527686  0.63622445    -0.22800
F1428       F  0.89921756  0.66281231  0.61667133    -0.20130
F1429       F  0.94007132  0.71329779  0.58310350    -0.19810
F1430       F  0.57932009  0.64632966  0.75790489    -0.19860
F1431       F  0.60324886  0.71157593  0.73444534    -0.20180
F1432       F  0.62503320  0.64615715  0.70316763    -0.22860
C1433       C  0.98074364  0.64337440  0.83746422    -0.05690
C1434       C  0.01468128  0.65378746  0.86530878     0.00230
C1435       C  0.54487143  0.68797542  0.85589201    -0.08340
C1436       C  0.54075483  0.70933478  0.81818032    -0.05710
C1437       C  0.00619350  0.69953740  0.79031225     0.00220
C1438       C  0.97573079  0.66548013  0.80015703    -0.08250
C1439       C  0.93720698  0.65265116  0.77237290     0.62130
H1440       H  0.95797473  0.61724047  0.84532668     0.12830
H1441       H  0.56461194  0.73438743  0.81013654     0.12840
C1442       C  0.58006319  0.70354529  0.88574363     0.62370
F1443       F  0.90886104  0.62299690  0.79059956    -0.22800
F1444       F  0.95618191  0.63121659  0.73822366    -0.20130
F1445       F  0.90953093  0.69087399  0.76191428    -0.19810
F1446       F  0.61717548  0.67130421  0.88833334    -0.19860
F1447       F  0.55932023  0.71060846  0.92332433    -0.20180
F1448       F  0.59747946  0.74381288  0.87410918    -0.22860
C1449       C  0.53126564  0.79363154  0.68707634    -0.05690
C1450       C  0.99408720  0.80049721  0.71477286     0.00230
C1451       C  0.95484236  0.82988701  0.70423243    -0.08340
C1452       C  0.95518960  0.85210646  0.66681423    -0.05710
C1453       C  0.99243592  0.84487023  0.63909281     0.00220
C1454       C  0.53055713  0.81363635  0.64892294    -0.08250
C1455       C  0.57006967  0.79982839  0.61944982     0.62130
H1456       H  0.56105128  0.77159443  0.69548822     0.12830
H1457       H  0.92624004  0.87581339  0.65918930     0.12840
C1458       C  0.91230915  0.83746825  0.73169420     0.62370
F1459       F  0.59772258  0.76272123  0.63276544    -0.22800
F1460       F  0.59834188  0.83506730  0.61480974    -0.20130
F1461       F  0.55215192  0.78818135  0.58259491    -0.19810
F1462       F  0.89698045  0.79636345  0.74326904    -0.19860
F1463       F  0.87567748  0.86141188  0.71272602    -0.20180
F1464       F  0.92341086  0.86196126  0.76537690    -0.22860
C1465       C  0.52307696  0.84946485  0.84306421    -0.05690
C1466       C  0.98848138  0.83877449  0.87078103     0.00230
C1467       C  0.95656338  0.80673578  0.85983136    -0.08340
C1468       C  0.95897659  0.78853343  0.82055544    -0.05710
C1469       C  0.99379597  0.79890095  0.79274684     0.00220
C1470       C  0.52680633  0.82983160  0.80431606    -0.08250
C1471       C  0.56667488  0.84153522  0.77679057     0.62130
H1472       H  0.54729362  0.87384758  0.85203772     0.12830
H1473       H  0.93405912  0.76491615  0.81143560     0.12840
C1474       C  0.92137419  0.78974620  0.88943528     0.62370
F1475       F  0.54936019  0.86655243  0.74459709    -0.22800
F1476       F  0.59110882  0.80240477  0.76294494    -0.20130
F1477       F  0.59799623  0.86703285  0.79650801    -0.19810
F1478       F  0.88319660  0.82079681  0.89286575    -0.19860
F1479       F  0.94131107  0.78277948  0.92683763    -0.20180
F1480       F  0.90576330  0.74895322  0.87673840    -0.22860
loop_ 
_geom_bond_atom_site_label_1 
_geom_bond_atom_site_label_2 
_geom_bond_distance 
_geom_bond_site_symmetry_2 
_ccdc_geom_bond_type 
C1           N19   1.349       .  A
C1          C107   1.494       .  S
C1          C408   1.467       .  S
N2           N19   1.322       .  A
N2          N394   1.320       .  A
N2         Co224   2.092       .  S
C3           N28   1.341       .  A
C3           C41   1.468       .  S
C3           H48   1.081       .  S
H4           C45   1.078       .  S
C5           N29   1.341       .  A
C5            C9   1.464       .  S
C5           H34   1.076       .  S
Co6          N24   2.089       .  S
Co6          N14   2.090       .  S
Co6         N231   2.081       .  S
Co6         N207   2.093       .  S
Co6        Cl975   2.454   1_545  S
N7           C45   1.343       .  A
N7          N754   1.319   1_455  A
N7           Co8   2.090       .  S
Co8          N11   2.084       .  S
Co8         N213   2.089       .  S
Co8         N200   2.089       .  S
Co8        Cl235   2.455   1_445  S
C9          N417   1.351       .  A
C9           C78   1.483       .  S
N10          N40   1.325       .  A
N10         N757   1.317   1_455  A
N10        Co228   2.080       .  S
N11          N47   1.320       .  A
N11         N399   1.318   1_545  A
N12         C781   1.351       .  A
N12          N22   1.325       .  A
H13          C38   1.081       .  S
N14          N35   1.325       .  A
N14         N747   1.319       .  A
N15          N20   1.326       .  A
N15         N403   1.319   1_545  A
N15        Co193   2.089       .  S
C16          N20   1.352   1_565  A
C16         C414   1.450       .  S
C16         C429   1.468       .  S
N17          C32   1.338       .  A
N17         N750   1.317       .  A
N17        Co224   2.080       .  S
C18          N46   1.339       .  A
C18          C21   1.455       .  S
C18          H52   1.077       .  S
C21         N412   1.350   1_545  A
C21         C464   1.469       .  S
N22         N768   1.319       .  A
N22        Co191   2.093   1_554  S
N23          C49   1.344       .  A
N23         N765   1.320       .  A
N23         Co39   2.093       .  S
N24          C38   1.343       .  A
N24         N372   1.320   1_545  A
N25          N53   1.322       .  A
N25         N763   1.320   1_455  A
N25         Co43   2.086       .  S
H26          C49   1.081       .  S
H27          C44   1.077       .  S
N28         N762   1.319   1_455  A
N28        Co193   2.089       .  S
N29         N381   1.318       .  A
N29        Co228   2.079       .  S
N30          N42   1.324       .  A
N30         N416   1.319       .  A
N30         Co39   2.081       .  S
C31          N35   1.352       .  A
C31         C139   1.488       .  S
C31         C785   1.463       .  S
C32          C51   1.460       .  S
C32          H36   1.074       .  S
N33          C44   1.338       .  A
N33         N385   1.319       .  A
N33         Co43   2.075       .  S
C37          N53   1.348   1_655  A
C37         C789   1.469       .  S
C37         C898   1.492       .  S
C38         C371   1.467       .  S
Co39        N187   2.092   1_554  S
Co39        N202   2.080   1_554  S
Co39      Cl1160   2.455       .  S
N40         C791   1.352   1_455  A
C41         N752   1.351   1_455  A
C41         C866   1.497       .  S
N42         C391   1.350       .  A
Co43        N195   2.080   1_554  S
Co43        N214   2.079   1_554  S
Co43       Cl420   2.451   1_455  S
C44         C386   1.450       .  S
C45         C771   1.463       .  S
N46         N400   1.319   1_545  A
N46        Co191   2.081   1_554  S
N47         C379   1.351   1_545  A
C49         C777   1.469       .  S
Cl50       Co931   2.454   1_564  S
Cl50       Co193   2.455   1_665  S
Cl50      Co1149   2.455       .  S
Cl50       Co413   2.451   1_655  S
C51         N780   1.352       .  A
C51         C171   1.483       .  S
C54          C55   1.384       .  D
C54         C155   1.508       .  S
C54         C174   1.503       .  S
C55         C123   1.506       .  S
C55         C142   1.514       .  S
C56          C57   1.390       .  D
C56          C91   1.528       .  S
C56         C110   1.499       .  S
C57          C62   1.514       .  S
C57          C75   1.500       .  S
C58          H65   1.084       .  S
C58          C63   1.409       .  A
C58         C429   1.402       .  A
C59         C386   1.468       .  S
C59          C60   1.412       .  A
C59         C428   1.402       .  A
C60          C61   1.398       .  A
C60          C67   1.521       .  S
C61          H66   1.073       .  S
C61          C62   1.407       .  A
C62         C433   1.424       .  A
C63         C432   1.424       .  A
C63          C64   1.515       .  S
C64          F70   1.381       .  S
C64         F438   1.383       .  S
C64         F439   1.378       .  S
C67          F71   1.384       .  S
C67          F73   1.381       .  S
C67         F442   1.380       .  S
F68         C434   1.383       .  S
F69         C434   1.378       .  S
F72         C437   1.380       .  S
C74         H451   1.082       .  S
C74          C75   1.404       .  A
C74         C449   1.409       .  A
C75          C76   1.420       .  A
C76          C77   1.398       .  A
C76          C83   1.515       .  S
C77          H82   1.085       .  S
C77          C78   1.400       .  A
C78         C449   1.419       .  A
C79         C444   1.409       .  A
C79         C448   1.419       .  A
C79          C80   1.516       .  S
C80          F86   1.384       .  S
C80         F454   1.385       .  S
C80         F455   1.381       .  S
H81         C444   1.082       .  S
C83          F87   1.381       .  S
C83         F458   1.379       .  S
C83         F459   1.382       .  S
F84         C450   1.385       .  S
F85         C450   1.381       .  S
F88         C453   1.379       .  S
F89         C453   1.382       .  S
C90          H97   1.080       .  S
C90          C91   1.415       .  A
C90          C95   1.408       .  A
C91          C92   1.444       .  A
C92          C93   1.407       .  A
C92          C99   1.525       .  S
C93          H98   1.083       .  S
C93          C94   1.390       .  A
C94         C391   1.469       .  S
C94          C95   1.405       .  A
C95          C96   1.516       .  S
C96         F100   1.384       .  S
C96         F101   1.383       .  S
C96         F472   1.384       .  S
C99         F103   1.377       .  S
C99         F474   1.379       .  S
C99         F475   1.386       .  S
F102        C466   1.384       .  S
F104        C469   1.379   1_545  S
F105        C469   1.386       .  S
C106        H113   1.083       .  S
C106        C111   1.410       .  A
C106        C477   1.409       .  A
C107        C108   1.423       .  A
C107        C476   1.409       .  A
C108        C109   1.398       .  A
C108        C115   1.518       .  S
C109        H114   1.079       .  S
C109        C110   1.399       .  A
C110        C481   1.420       .  A
C111        C480   1.420       .  A
C111        C112   1.515       .  S
C112        F116   1.379       .  S
C112        F117   1.382       .  S
C112        F118   1.377       .  S
C115        F119   1.382       .  S
C115        F120   1.382       .  S
C115        F121   1.385       .  S
C122        H129   1.081       .  S
C122        C123   1.405       .  A
C122        C127   1.407       .  A
C123        C864   1.417       .  A
C124        C125   1.408       .  A
C124        C863   1.417       .  A
C124        C131   1.517       .  S
C125        H130   1.079       .  S
C125        C866   1.406       .  A
C126        C781   1.497       .  S
C126        C127   1.423       .  A
C126        C865   1.406       .  A
C127        C128   1.518       .  S
C128        F132   1.385       .  S
C128        F133   1.380       .  S
C128        F134   1.384       .  S
C131        F135   1.374       .  S
C131        F136   1.381       .  S
C131        F137   1.384       .  S
C138        H145   1.083       .  S
C138        C139   1.401       .  A
C138        C143   1.409       .  A
C139        C880   1.418       .  A
C140        C141   1.409       .  A
C140        C879   1.418       .  A
C140        C147   1.518       .  S
C141        H146   1.081       .  S
C141        C882   1.409       .  A
C142        C143   1.423       .  A
C142        C881   1.409       .  A
C143        C144   1.517       .  S
C144        F148   1.382       .  S
C144        F149   1.381       .  S
C144        F150   1.383       .  S
C147        F151   1.380       .  S
C147        F152   1.384       .  S
C147        F153   1.385       .  S
C154        H161   1.077       .  S
C154        C159   1.402       .  A
C154        C895   1.403   1_455  A
C155        C156   1.420       .  A
C155        C894   1.403       .  A
C156        C157   1.411       .  A
C156        C163   1.518       .  S
C157        H162   1.081       .  S
C157        C158   1.406       .  A
C158        C777   1.492       .  S
C158        C899   1.422       .  A
C159        C898   1.422   1_455  A
C159        C160   1.520       .  S
C160        F164   1.385       .  S
C160        F165   1.380       .  S
C160        F166   1.384       .  S
C163        F167   1.383       .  S
C163        F168   1.384       .  S
C163        F169   1.381       .  S
C170        H177   1.083       .  S
C170        C175   1.407       .  A
C170        C911   1.403   1_455  A
C171        C172   1.418       .  A
C171        C910   1.403       .  A
C172        C173   1.405       .  A
C172        C179   1.518       .  S
C173        H178   1.083       .  S
C173        C174   1.406       .  A
C174        C915   1.422       .  A
C175        C914   1.422   1_455  A
C175        C176   1.520       .  S
C176        F180   1.381       .  S
C176        F181   1.381       .  S
C176        F182   1.385       .  S
C179        F183   1.380       .  S
C179        F184   1.383       .  S
C179        F185   1.385       .  S
C186        N204   1.349       .  A
C186        C593   1.467       .  S
C186        C292   1.494       .  S
N187        N204   1.322       .  A
N187        N579   1.320       .  A
C188        N213   1.341       .  A
C188        C226   1.468       .  S
C188        H233   1.081       .  S
H189        C230   1.078       .  S
C190        N214   1.341       .  A
C190        C194   1.464       .  S
C190        H219   1.076       .  S
Co191       N209   2.089       .  S
Co191       N199   2.090       .  S
Co191      Cl790   2.454   1_546  S
N192        C230   1.343       .  A
N192        N939   1.319   1_455  A
N192       Co193   2.090   1_556  S
Co193       N196   2.084   1_554  S
C194        N602   1.351       .  A
C194        C263   1.483       .  S
N195        N942   1.317   1_455  A
N195        N225   1.325       .  A
N196        N584   1.318   1_545  A
N196        N232   1.320       .  A
N197        C966   1.351       .  A
N197        N207   1.325       .  A
H198        C223   1.081       .  S
N199        N932   1.319       .  A
N199        N220   1.325       .  A
N200        N588   1.319   1_545  A
N200        N205   1.326       .  A
C201        N205   1.352   1_565  A
C201        C599   1.450       .  S
C201        C614   1.468       .  S
N202        C217   1.338       .  A
N202        N935   1.317       .  A
C203        N231   1.339       .  A
C203        C206   1.455       .  S
C203        H237   1.077       .  S
C206        N597   1.350   1_545  A
C206        C649   1.469       .  S
N207        N953   1.319       .  A
N208        C234   1.344       .  A
N208        N950   1.320       .  A
N208       Co224   2.093       .  S
N209        C223   1.343       .  A
N209        N557   1.320   1_545  A
N210        N948   1.320   1_455  A
N210        N238   1.322       .  A
N210       Co228   2.086       .  S
H211        C234   1.081       .  S
H212        C229   1.077       .  S
N213        N947   1.319   1_455  A
N214        N566   1.318       .  A
N215        N227   1.324       .  A
N215        N601   1.319       .  A
N215       Co224   2.081       .  S
C216        N220   1.352       .  A
C216        C970   1.463       .  S
C216        C324   1.488       .  S
C217        C236   1.460       .  S
C217        H221   1.074       .  S
N218        C229   1.338       .  A
N218        N570   1.319       .  A
N218       Co228   2.075       .  S
C222        N238   1.348   1_655  A
C222        C974   1.469       .  S
C222       C1083   1.492       .  S
C223        C556   1.467       .  S
Co224     Cl1345   2.455       .  S
N225        C976   1.352   1_455  A
C226        N937   1.351   1_455  A
C226       C1051   1.497       .  S
N227        C576   1.350       .  A
Co228      Cl605   2.451   1_455  S
C229        C571   1.450       .  S
C230        C956   1.463       .  S
N231        N585   1.319   1_545  A
N232        C564   1.351   1_545  A
C234        C962   1.469       .  S
Cl235      Co746   2.454   1_565  S
Cl235     Co1334   2.455       .  S
Cl235      Co598   2.451   1_655  S
C236        N965   1.352       .  A
C236        C356   1.483       .  S
C239        C240   1.384       .  D
C239        C340   1.508       .  S
C239        C359   1.503       .  S
C240        C308   1.506       .  S
C240        C327   1.514       .  S
C241        C242   1.390       .  D
C241        C276   1.528       .  S
C241        C295   1.499       .  S
C242        C247   1.514       .  S
C242        C260   1.500       .  S
C243        H250   1.084       .  S
C243        C614   1.402       .  A
C243        C248   1.409       .  A
C244        C571   1.468       .  S
C244        C613   1.402       .  A
C244        C245   1.412       .  A
C245        C246   1.398       .  A
C245        C252   1.521       .  S
C246        H251   1.073       .  S
C246        C247   1.407       .  A
C247        C618   1.424       .  A
C248        C617   1.424       .  A
C248        C249   1.515       .  S
C249        F623   1.383       .  S
C249        F624   1.378       .  S
C249        F255   1.381       .  S
C252        F256   1.384       .  S
C252        F627   1.380       .  S
C252        F258   1.381       .  S
F253        C619   1.383       .  S
F254        C619   1.378       .  S
F257        C622   1.380       .  S
C259        H636   1.082       .  S
C259        C260   1.404       .  A
C259        C634   1.409       .  A
C260        C261   1.420       .  A
C261        C262   1.398       .  A
C261        C268   1.515       .  S
C262        H267   1.085       .  S
C262        C263   1.400       .  A
C263        C634   1.419       .  A
C264        C629   1.409       .  A
C264        C633   1.419       .  A
C264        C265   1.516       .  S
C265        F639   1.385       .  S
C265        F640   1.381       .  S
C265        F271   1.384       .  S
H266        C629   1.082       .  S
C268        F272   1.381       .  S
C268        F643   1.379       .  S
C268        F644   1.382       .  S
F269        C635   1.385       .  S
F270        C635   1.381       .  S
F273        C638   1.379       .  S
F274        C638   1.382       .  S
C275        H282   1.080       .  S
C275        C276   1.415       .  A
C275        C280   1.408       .  A
C276        C277   1.444       .  A
C277        C278   1.407       .  A
C277        C284   1.525       .  S
C278        H283   1.083       .  S
C278        C279   1.390       .  A
C279        C576   1.469       .  S
C279        C280   1.405       .  A
C280        C281   1.516       .  S
C281        F285   1.384       .  S
C281        F286   1.383       .  S
C281        F657   1.384       .  S
C284        F288   1.377       .  S
C284        F659   1.379       .  S
C284        F660   1.386       .  S
F287        C651   1.384       .  S
F289        C654   1.379   1_545  S
F290        C654   1.386       .  S
C291        H298   1.083       .  S
C291        C662   1.409       .  A
C291        C296   1.410       .  A
C292        C661   1.409       .  A
C292        C293   1.423       .  A
C293        C294   1.398       .  A
C293        C300   1.518       .  S
C294        H299   1.079       .  S
C294        C295   1.399       .  A
C295        C666   1.420       .  A
C296        C665   1.420       .  A
C296        C297   1.515       .  S
C297        F301   1.379       .  S
C297        F302   1.382       .  S
C297        F303   1.377       .  S
C300        F304   1.382       .  S
C300        F305   1.382       .  S
C300        F306   1.385       .  S
C307        H314   1.081       .  S
C307        C308   1.405       .  A
C307        C312   1.407       .  A
C308       C1049   1.417       .  A
C309       C1048   1.417       .  A
C309        C310   1.408       .  A
C309        C316   1.517       .  S
C310        H315   1.079       .  S
C310       C1051   1.406       .  A
C311        C966   1.497       .  S
C311       C1050   1.406       .  A
C311        C312   1.423       .  A
C312        C313   1.518       .  S
C313        F317   1.385       .  S
C313        F318   1.380       .  S
C313        F319   1.384       .  S
C316        F320   1.374       .  S
C316        F321   1.381       .  S
C316        F322   1.384       .  S
C323        H330   1.083       .  S
C323        C324   1.401       .  A
C323        C328   1.409       .  A
C324       C1065   1.418       .  A
C325       C1064   1.418       .  A
C325        C326   1.409       .  A
C325        C332   1.518       .  S
C326        H331   1.081       .  S
C326       C1067   1.409       .  A
C327       C1066   1.409       .  A
C327        C328   1.423       .  A
C328        C329   1.517       .  S
C329        F333   1.382       .  S
C329        F334   1.381       .  S
C329        F335   1.383       .  S
C332        F336   1.380       .  S
C332        F337   1.384       .  S
C332        F338   1.385       .  S
C339        H346   1.077       .  S
C339       C1080   1.403   1_455  A
C339        C344   1.402       .  A
C340       C1079   1.403       .  A
C340        C341   1.420       .  A
C341        C342   1.411       .  A
C341        C348   1.518       .  S
C342        H347   1.081       .  S
C342        C343   1.406       .  A
C343        C962   1.492       .  S
C343       C1084   1.422       .  A
C344       C1083   1.422   1_455  A
C344        C345   1.520       .  S
C345        F349   1.385       .  S
C345        F350   1.380       .  S
C345        F351   1.384       .  S
C348        F352   1.383       .  S
C348        F353   1.384       .  S
C348        F354   1.381       .  S
C355        H362   1.083       .  S
C355       C1096   1.403   1_455  A
C355        C360   1.407       .  A
C356       C1095   1.403       .  A
C356        C357   1.418       .  A
C357        C358   1.405       .  A
C357        C364   1.518       .  S
C358        H363   1.083       .  S
C358        C359   1.406       .  A
C359       C1100   1.422       .  A
C360       C1099   1.422   1_455  A
C360        C361   1.520       .  S
C361        F365   1.381       .  S
C361        F366   1.381       .  S
C361        F367   1.385       .  S
C364        F368   1.380       .  S
C364        F369   1.383       .  S
C364        F370   1.385       .  S
C371        N389   1.349   1_545  A
C371        C477   1.494       .  S
N372        N389   1.322       .  A
N372       Co594   2.092       .  S
C373        N398   1.341       .  A
C373        C411   1.468       .  S
C373        H418   1.081       .  S
H374        C415   1.078       .  S
C375        N399   1.341       .  A
C375        C379   1.464       .  S
C375        H404   1.076       .  S
Co376       N394   2.089       .  S
Co376       N384   2.090       .  S
Co376       N601   2.081       .  S
Co376       N577   2.093       .  S
Co376     Cl1345   2.454       .  S
N377        C415   1.343       .  A
N377       N1124   1.319   1_455  A
N377       Co378   2.090       .  S
Co378       N381   2.084       .  S
Co378       N583   2.089       .  S
Co378       N570   2.089       .  S
Co378      Cl605   2.455   1_455  S
C379        C448   1.483       .  S
N380       N1127   1.317   1_455  A
N380        N410   1.325       .  A
N380       Co598   2.080       .  S
N381        N417   1.320       .  A
N382       C1151   1.351       .  A
N382        N392   1.325       .  A
H383        C408   1.081       .  S
N384       N1117   1.319       .  A
N384        N405   1.325       .  A
N385        N390   1.326       .  A
N385       Co563   2.089       .  S
C386        N390   1.352       .  A
N387        C402   1.338       .  A
N387       N1120   1.317       .  A
N387       Co594   2.080       .  S
C388        N416   1.339       .  A
C388        C391   1.455       .  S
C388        H422   1.077       .  S
N392       N1138   1.319       .  A
N392       Co561   2.093   1_554  S
N393        C419   1.344       .  A
N393       N1135   1.320       .  A
N393       Co409   2.093       .  S
N394        C408   1.343       .  A
N395       N1133   1.320   1_455  A
N395        N423   1.322       .  A
N395       Co413   2.086       .  S
H396        C419   1.081       .  S
H397        C414   1.077       .  S
N398       N1132   1.319   1_455  A
N398       Co563   2.089       .  S
N399       Co598   2.079       .  S
N400        N412   1.324       .  A
N400       Co409   2.081       .  S
C401        N405   1.352       .  A
C401       C1155   1.463       .  S
C401        C509   1.488       .  S
C402        C421   1.460       .  S
C402        H406   1.074       .  S
N403        C414   1.338       .  A
N403       Co413   2.075       .  S
C407        N423   1.348   1_655  A
C407       C1159   1.469       .  S
C407       C1268   1.492       .  S
Co409       N557   2.092   1_554  S
Co409       N572   2.080   1_554  S
Co409      Cl790   2.455       .  S
N410       C1161   1.352   1_455  A
C411       N1122   1.351   1_455  A
C411       C1236   1.497       .  S
Co413       N565   2.080   1_554  S
Co413       N584   2.079   1_554  S
C415       C1141   1.463       .  S
N416       Co561   2.081   1_554  S
C419       C1147   1.469       .  S
Cl420     Co1301   2.454   1_554  S
Cl420      Co563   2.455   1_655  S
Cl420      Co779   2.455       .  S
C421       N1150   1.352       .  A
C421        C541   1.483       .  S
C424        C425   1.384       .  D
C424        C525   1.508       .  S
C424        C544   1.503       .  S
C425        C493   1.506       .  S
C425        C512   1.514       .  S
C426        C427   1.390   1_545  D
C426        C461   1.528       .  S
C426        C480   1.499       .  S
C427        C432   1.514       .  S
C427        C445   1.500       .  S
C428        H435   1.084       .  S
C428        C433   1.409       .  A
C429        C430   1.412       .  A
C430        C431   1.398       .  A
C430        C437   1.521   1_565  S
C431        H436   1.073   1_565  S
C431        C432   1.407       .  A
C433        C434   1.515       .  S
C434        F440   1.381       .  S
C437        F441   1.384   1_545  S
C437        F443   1.381       .  S
C444        C445   1.404       .  A
C445        C446   1.420   1_565  A
C446        C447   1.398       .  A
C446        C453   1.515       .  S
C447        H452   1.085       .  S
C447        C448   1.400   1_545  A
C449        C450   1.516       .  S
C450        F456   1.384       .  S
C453        F457   1.381       .  S
C460        H467   1.080       .  S
C460        C461   1.415       .  A
C460        C465   1.408       .  A
C461        C462   1.444       .  A
C462        C463   1.407       .  A
C462        C469   1.525   1_545  S
C463        H468   1.083       .  S
C463        C464   1.390       .  A
C464        C465   1.405       .  A
C465        C466   1.516       .  S
C466        F470   1.384       .  S
C466        F471   1.383       .  S
C469        F473   1.377       .  S
C476        H483   1.083       .  S
C476        C481   1.410       .  A
C477        C478   1.423   1_545  A
C478        C479   1.398       .  A
C478        C485   1.518       .  S
C479        H484   1.079       .  S
C479        C480   1.399   1_565  A
C481        C482   1.515       .  S
C482        F486   1.379       .  S
C482        F487   1.382       .  S
C482        F488   1.377       .  S
C485        F489   1.382       .  S
C485        F490   1.382       .  S
C485        F491   1.385       .  S
C492        H499   1.081       .  S
C492        C493   1.405       .  A
C492        C497   1.407       .  A
C493       C1234   1.417       .  A
C494       C1233   1.417       .  A
C494        C495   1.408       .  A
C494        C501   1.517       .  S
C495        H500   1.079       .  S
C495       C1236   1.406       .  A
C496       C1151   1.497       .  S
C496       C1235   1.406       .  A
C496        C497   1.423       .  A
C497        C498   1.518       .  S
C498        F502   1.385       .  S
C498        F503   1.380       .  S
C498        F504   1.384       .  S
C501        F505   1.374       .  S
C501        F506   1.381       .  S
C501        F507   1.384       .  S
C508        H515   1.083       .  S
C508        C509   1.401       .  A
C508        C513   1.409       .  A
C509       C1250   1.418       .  A
C510       C1249   1.418       .  A
C510        C511   1.409       .  A
C510        C517   1.518       .  S
C511        H516   1.081       .  S
C511       C1252   1.409       .  A
C512       C1251   1.409       .  A
C512        C513   1.423       .  A
C513        C514   1.517       .  S
C514        F518   1.382       .  S
C514        F519   1.381       .  S
C514        F520   1.383       .  S
C517        F521   1.380       .  S
C517        F522   1.384       .  S
C517        F523   1.385       .  S
C524        H531   1.077       .  S
C524       C1265   1.403   1_455  A
C524        C529   1.402       .  A
C525       C1264   1.403       .  A
C525        C526   1.420       .  A
C526        C527   1.411       .  A
C526        C533   1.518       .  S
C527        H532   1.081       .  S
C527        C528   1.406       .  A
C528       C1147   1.492       .  S
C528       C1269   1.422       .  A
C529       C1268   1.422   1_455  A
C529        C530   1.520       .  S
C530        F534   1.385       .  S
C530        F535   1.380       .  S
C530        F536   1.384       .  S
C533        F537   1.383       .  S
C533        F538   1.384       .  S
C533        F539   1.381       .  S
C540        H547   1.083       .  S
C540       C1281   1.403   1_455  A
C540        C545   1.407       .  A
C541       C1280   1.403       .  A
C541        C542   1.418       .  A
C542        C543   1.405       .  A
C542        C549   1.518       .  S
C543        H548   1.083       .  S
C543        C544   1.406       .  A
C544       C1285   1.422       .  A
C545       C1284   1.422   1_455  A
C545        C546   1.520       .  S
C546        F550   1.381       .  S
C546        F551   1.381       .  S
C546        F552   1.385       .  S
C549        F553   1.380       .  S
C549        F554   1.383       .  S
C549        F555   1.385       .  S
C556        N574   1.349   1_545  A
C556        C662   1.494       .  S
N557        N574   1.322       .  A
C558        N583   1.341       .  A
C558        C596   1.468       .  S
C558        H603   1.081       .  S
H559        C600   1.078       .  S
C560        N584   1.341       .  A
C560        C564   1.464       .  S
C560        H589   1.076       .  S
Co561       N579   2.089       .  S
Co561       N569   2.090       .  S
Co561     Cl1160   2.454   1_556  S
N562        C600   1.343       .  A
N562       N1309   1.319   1_455  A
N562       Co563   2.090   1_556  S
Co563       N566   2.084   1_554  S
C564        C633   1.483       .  S
N565       N1312   1.317   1_455  A
N565        N595   1.325       .  A
N566        N602   1.320       .  A
N567       C1336   1.351       .  A
N567        N577   1.325       .  A
H568        C593   1.081       .  S
N569       N1302   1.319       .  A
N569        N590   1.325       .  A
N570        N575   1.326       .  A
C571        N575   1.352       .  A
N572        C587   1.338       .  A
N572       N1305   1.317       .  A
C573        N601   1.339       .  A
C573        C576   1.455       .  S
C573        H607   1.077       .  S
N577       N1323   1.319       .  A
N578        C604   1.344       .  A
N578       N1320   1.320       .  A
N578       Co594   2.093       .  S
N579        C593   1.343       .  A
N580       N1318   1.320   1_455  A
N580        N608   1.322       .  A
N580       Co598   2.086       .  S
H581        C604   1.081       .  S
H582        C599   1.077       .  S
N583       N1317   1.319   1_455  A
N585        N597   1.324       .  A
N585       Co594   2.081       .  S
C586        N590   1.352       .  A
C586       C1340   1.463       .  S
C586        C694   1.488       .  S
C587        C606   1.460       .  S
C587        H591   1.074       .  S
N588        C599   1.338       .  A
N588       Co598   2.075       .  S
C592        N608   1.348   1_655  A
C592       C1344   1.469       .  S
C592       C1453   1.492       .  S
Co594      Cl975   2.455       .  S
N595       C1346   1.352   1_455  A
C596       N1307   1.351   1_455  A
C596       C1421   1.497       .  S
C600       C1326   1.463       .  S
C604       C1332   1.469       .  S
Cl605     Co1116   2.454       .  S
Cl605      Co964   2.455       .  S
C606       N1335   1.352       .  A
C606        C726   1.483       .  S
C609        C610   1.384       .  D
C609        C710   1.508       .  S
C609        C729   1.503       .  S
C610        C678   1.506       .  S
C610        C697   1.514       .  S
C611        C612   1.390   1_545  D
C611        C646   1.528       .  S
C611        C665   1.499       .  S
C612        C617   1.514       .  S
C612        C630   1.500       .  S
C613        H620   1.084       .  S
C613        C618   1.409       .  A
C614        C615   1.412       .  A
C615        C616   1.398       .  A
C615        C622   1.521   1_565  S
C616        H621   1.073   1_565  S
C616        C617   1.407       .  A
C618        C619   1.515       .  S
C619        F625   1.381       .  S
C622        F626   1.384   1_545  S
C622        F628   1.381       .  S
C629        C630   1.404       .  A
C630        C631   1.420   1_565  A
C631        C632   1.398       .  A
C631        C638   1.515       .  S
C632        H637   1.085       .  S
C632        C633   1.400   1_545  A
C634        C635   1.516       .  S
C635        F641   1.384       .  S
C638        F642   1.381       .  S
C645        H652   1.080       .  S
C645        C646   1.415       .  A
C645        C650   1.408       .  A
C646        C647   1.444       .  A
C647        C648   1.407       .  A
C647        C654   1.525   1_545  S
C648        H653   1.083       .  S
C648        C649   1.390       .  A
C649        C650   1.405       .  A
C650        C651   1.516       .  S
C651        F655   1.384       .  S
C651        F656   1.383       .  S
C654        F658   1.377       .  S
C661        H668   1.083       .  S
C661        C666   1.410       .  A
C662        C663   1.423   1_545  A
C663        C664   1.398       .  A
C663        C670   1.518       .  S
C664        H669   1.079       .  S
C664        C665   1.399   1_565  A
C666        C667   1.515       .  S
C667        F671   1.379       .  S
C667        F672   1.382       .  S
C667        F673   1.377       .  S
C670        F674   1.382       .  S
C670        F675   1.382       .  S
C670        F676   1.385       .  S
C677        H684   1.081       .  S
C677        C678   1.405       .  A
C677        C682   1.407       .  A
C678       C1419   1.417       .  A
C679       C1418   1.417       .  A
C679        C680   1.408       .  A
C679        C686   1.517       .  S
C680        H685   1.079       .  S
C680       C1421   1.406       .  A
C681       C1336   1.497       .  S
C681       C1420   1.406       .  A
C681        C682   1.423       .  A
C682        C683   1.518       .  S
C683        F687   1.385       .  S
C683        F688   1.380       .  S
C683        F689   1.384       .  S
C686        F690   1.374       .  S
C686        F691   1.381       .  S
C686        F692   1.384       .  S
C693        H700   1.083       .  S
C693        C694   1.401       .  A
C693        C698   1.409       .  A
C694       C1435   1.418       .  A
C695       C1434   1.418       .  A
C695        C696   1.409       .  A
C695        C702   1.518       .  S
C696        H701   1.081       .  S
C696       C1437   1.409       .  A
C697       C1436   1.409       .  A
C697        C698   1.423       .  A
C698        C699   1.517       .  S
C699        F703   1.382       .  S
C699        F704   1.381       .  S
C699        F705   1.383       .  S
C702        F706   1.380       .  S
C702        F707   1.384       .  S
C702        F708   1.385       .  S
C709        H716   1.077       .  S
C709       C1450   1.403   1_455  A
C709        C714   1.402       .  A
C710       C1449   1.403       .  A
C710        C711   1.420       .  A
C711        C712   1.411       .  A
C711        C718   1.518       .  S
C712        H717   1.081       .  S
C712        C713   1.406       .  A
C713       C1332   1.492       .  S
C713       C1454   1.422       .  A
C714       C1453   1.422   1_455  A
C714        C715   1.520       .  S
C715        F719   1.385       .  S
C715        F720   1.380       .  S
C715        F721   1.384       .  S
C718        F722   1.383       .  S
C718        F723   1.384       .  S
C718        F724   1.381       .  S
C725        H732   1.083       .  S
C725       C1466   1.403   1_455  A
C725        C730   1.407       .  A
C726       C1465   1.403       .  A
C726        C727   1.418       .  A
C727        C728   1.405       .  A
C727        C734   1.518       .  S
C728        H733   1.083       .  S
C728        C729   1.406       .  A
C729       C1470   1.422       .  A
C730       C1469   1.422   1_455  A
C730        C731   1.520       .  S
C731        F735   1.381       .  S
C731        F736   1.381       .  S
C731        F737   1.385       .  S
C734        F738   1.380       .  S
C734        F739   1.383       .  S
C734        F740   1.385       .  S
C741        N759   1.349       .  A
C741       C1148   1.467       .  S
C741        C847   1.494       .  S
N742        N759   1.322       .  A
N742       N1134   1.320       .  A
N742       Co964   2.092       .  S
C743        N768   1.341       .  A
C743        C781   1.468       .  S
C743        H788   1.081       .  S
H744        C785   1.078       .  S
C745        N769   1.341       .  A
C745        C749   1.464       .  S
C745        H774   1.076       .  S
Co746       N764   2.089       .  S
Co746       N754   2.090       .  S
Co746       N971   2.081       .  S
Co746       N947   2.093       .  S
N747        C785   1.343       .  A
N747       Co748   2.090       .  S
Co748       N751   2.084       .  S
Co748       N953   2.089       .  S
Co748       N940   2.089       .  S
Co748      Cl975   2.455   1_545  S
C749       N1157   1.351       .  A
C749        C818   1.483       .  S
N750        N780   1.325       .  A
N750       Co968   2.080       .  S
N751       N1139   1.318   1_545  A
N751        N787   1.320       .  A
N752        N762   1.325       .  A
H753        C778   1.081       .  S
N754        N775   1.325       .  A
N755       N1143   1.319   1_545  A
N755        N760   1.326       .  A
N755       Co933   2.089       .  S
C756        N760   1.352   1_565  A
C756       C1154   1.450       .  S
C756       C1169   1.468       .  S
N757        C772   1.338       .  A
N757       Co964   2.080       .  S
C758        N786   1.339       .  A
C758        C761   1.455       .  S
C758        H792   1.077       .  S
C761       N1152   1.350   1_545  A
C761       C1204   1.469       .  S
N762       Co931   2.093   1_554  S
N763        C789   1.344       .  A
N763       Co779   2.093       .  S
N764        C778   1.343       .  A
N764       N1112   1.320   1_545  A
N765        N793   1.322       .  A
N765       Co783   2.086       .  S
H766        C789   1.081       .  S
H767        C784   1.077       .  S
N768       Co933   2.089       .  S
N769       N1121   1.318       .  A
N769       Co968   2.079       .  S
N770        N782   1.324       .  A
N770       N1156   1.319       .  A
N770       Co779   2.081       .  S
C771        N775   1.352   1_455  A
C771        C879   1.488       .  S
C772        C791   1.460       .  S
C772        H776   1.074       .  S
N773        C784   1.338       .  A
N773       N1125   1.319       .  A
N773       Co783   2.075       .  S
C777        N793   1.348       .  A
C778       C1111   1.467       .  S
Co779       N927   2.092   1_554  S
Co779       N942   2.080   1_554  S
N782       C1131   1.350       .  A
Co783       N935   2.080   1_554  S
Co783       N954   2.079   1_554  S
Co783     Cl1160   2.451       .  S
C784       C1126   1.450       .  S
N786       N1140   1.319   1_545  A
N786       Co931   2.081   1_554  S
N787       C1119   1.351   1_545  A
Cl790      Co933   2.455   1_565  S
Cl790     Co1153   2.451       .  S
C791        C911   1.483       .  S
C794        C795   1.384   1_655  D
C794        C895   1.508       .  S
C794        C914   1.503       .  S
C795        C863   1.506       .  S
C795        C882   1.514       .  S
C796        C797   1.390       .  D
C796        C831   1.528       .  S
C796        C850   1.499       .  S
C797        C802   1.514       .  S
C797        C815   1.500       .  S
C798        H805   1.084       .  S
C798       C1169   1.402       .  A
C798        C803   1.409       .  A
C799       C1126   1.468       .  S
C799       C1168   1.402       .  A
C799        C800   1.412       .  A
C800        C801   1.398       .  A
C800        C807   1.521       .  S
C801        H806   1.073       .  S
C801        C802   1.407       .  A
C802       C1173   1.424       .  A
C803       C1172   1.424       .  A
C803        C804   1.515       .  S
C804       F1178   1.383       .  S
C804       F1179   1.378       .  S
C804        F810   1.381       .  S
C807        F811   1.384       .  S
C807       F1182   1.380       .  S
C807        F813   1.381       .  S
F808       C1174   1.383       .  S
F809       C1174   1.378       .  S
F812       C1177   1.380       .  S
C814       H1191   1.082       .  S
C814        C815   1.404       .  A
C814       C1189   1.409       .  A
C815        C816   1.420       .  A
C816        C817   1.398       .  A
C816        C823   1.515       .  S
C817        H822   1.085       .  S
C817        C818   1.400       .  A
C818       C1189   1.419       .  A
C819       C1184   1.409       .  A
C819       C1188   1.419       .  A
C819        C820   1.516       .  S
C820       F1194   1.385       .  S
C820       F1195   1.381       .  S
C820        F826   1.384       .  S
H821       C1184   1.082       .  S
C823        F827   1.381       .  S
C823       F1198   1.379       .  S
C823       F1199   1.382       .  S
F824       C1190   1.385       .  S
F825       C1190   1.381       .  S
F828       C1193   1.379       .  S
F829       C1193   1.382       .  S
C830        H837   1.080       .  S
C830        C831   1.415       .  A
C830        C835   1.408       .  A
C831        C832   1.444       .  A
C832        C833   1.407       .  A
C832        C839   1.525       .  S
C833        H838   1.083       .  S
C833        C834   1.390       .  A
C834       C1131   1.469       .  S
C834        C835   1.405       .  A
C835        C836   1.516       .  S
C836        F840   1.384       .  S
C836        F841   1.383       .  S
C836       F1212   1.384       .  S
C839        F843   1.377       .  S
C839       F1214   1.379       .  S
C839       F1215   1.386       .  S
F842       C1206   1.384       .  S
F844       C1209   1.379   1_545  S
F845       C1209   1.386       .  S
C846        H853   1.083       .  S
C846       C1217   1.409       .  A
C846        C851   1.410       .  A
C847       C1216   1.409       .  A
C847        C848   1.423       .  A
C848        C849   1.398       .  A
C848        C855   1.518       .  S
C849        H854   1.079       .  S
C849        C850   1.399       .  A
C850       C1221   1.420       .  A
C851       C1220   1.420       .  A
C851        C852   1.515       .  S
C852        F856   1.379       .  S
C852        F857   1.382       .  S
C852        F858   1.377       .  S
C855        F859   1.382       .  S
C855        F860   1.382       .  S
C855        F861   1.385       .  S
C862        H869   1.081       .  S
C862        C863   1.405   1_655  A
C862        C867   1.407       .  A
C864        C865   1.408       .  A
C864        C871   1.517       .  S
C865        H870   1.079       .  S
C866        C867   1.423   1_455  A
C867        C868   1.518       .  S
C868        F872   1.385       .  S
C868        F873   1.380       .  S
C868        F874   1.384       .  S
C871        F875   1.374       .  S
C871        F876   1.381       .  S
C871        F877   1.384       .  S
C878        H885   1.083       .  S
C878        C879   1.401   1_655  A
C878        C883   1.409       .  A
C880        C881   1.409       .  A
C880        C887   1.518       .  S
C881        H886   1.081       .  S
C882        C883   1.423   1_455  A
C883        C884   1.517       .  S
C884        F888   1.382       .  S
C884        F889   1.381       .  S
C884        F890   1.383       .  S
C887        F891   1.380       .  S
C887        F892   1.384       .  S
C887        F893   1.385       .  S
C894        H901   1.077       .  S
C894        C899   1.402       .  A
C895        C896   1.420       .  A
C896        C897   1.411       .  A
C896        C903   1.518       .  S
C897        H902   1.081       .  S
C897        C898   1.406       .  A
C899        C900   1.520       .  S
C900        F904   1.385       .  S
C900        F905   1.380       .  S
C900        F906   1.384       .  S
C903        F907   1.383       .  S
C903        F908   1.384       .  S
C903        F909   1.381       .  S
C910        H917   1.083       .  S
C910        C915   1.407       .  A
C911        C912   1.418       .  A
C912        C913   1.405       .  A
C912        C919   1.518       .  S
C913        H918   1.083       .  S
C913        C914   1.406       .  A
C915        C916   1.520       .  S
C916        F920   1.381       .  S
C916        F921   1.381       .  S
C916        F922   1.385       .  S
C919        F923   1.380       .  S
C919        F924   1.383       .  S
C919        F925   1.385       .  S
C926        N944   1.349       .  A
C926       C1333   1.467       .  S
C926       C1032   1.494       .  S
N927        N944   1.322       .  A
N927       N1319   1.320       .  A
C928        N953   1.341       .  A
C928        C966   1.468       .  S
C928        H973   1.081       .  S
H929        C970   1.078       .  S
C930        N954   1.341       .  A
C930        C934   1.464       .  S
C930        H959   1.076       .  S
Co931       N949   2.089       .  S
Co931       N939   2.090       .  S
N932        C970   1.343       .  A
N932       Co933   2.090   1_556  S
Co933       N936   2.084   1_554  S
C934       N1342   1.351       .  A
C934       C1003   1.483       .  S
N935        N965   1.325       .  A
N936       N1324   1.318   1_545  A
N936        N972   1.320       .  A
N937        N947   1.325       .  A
H938        C963   1.081       .  S
N939        N960   1.325       .  A
N940       N1328   1.319   1_545  A
N940        N945   1.326       .  A
C941        N945   1.352   1_565  A
C941       C1339   1.450       .  S
C941       C1354   1.468       .  S
N942        C957   1.338       .  A
C943        N971   1.339       .  A
C943        C946   1.455       .  S
C943        H977   1.077       .  S
C946       N1337   1.350   1_545  A
C946       C1389   1.469       .  S
N948        C974   1.344       .  A
N948       Co964   2.093       .  S
N949        C963   1.343       .  A
N949       N1297   1.320   1_545  A
N950        N978   1.322       .  A
N950       Co968   2.086       .  S
H951        C974   1.081       .  S
H952        C969   1.077       .  S
N954       N1306   1.318       .  A
N955        N967   1.324       .  A
N955       N1341   1.319       .  A
N955       Co964   2.081       .  S
C956        N960   1.352   1_455  A
C956       C1064   1.488       .  S
C957        C976   1.460       .  S
C957        H961   1.074       .  S
N958        C969   1.338       .  A
N958       N1310   1.319       .  A
N958       Co968   2.075       .  S
C962        N978   1.348       .  A
C963       C1296   1.467       .  S
N967       C1316   1.350       .  A
Co968     Cl1345   2.451       .  S
C969       C1311   1.450       .  S
N971       N1325   1.319   1_545  A
N972       C1304   1.351   1_545  A
Cl975     Co1338   2.451       .  S
C976       C1096   1.483       .  S
C979        C980   1.384   1_655  D
C979       C1080   1.508       .  S
C979       C1099   1.503       .  S
C980       C1048   1.506       .  S
C980       C1067   1.514       .  S
C981        C982   1.390       .  D
C981       C1016   1.528       .  S
C981       C1035   1.499       .  S
C982        C987   1.514       .  S
C982       C1000   1.500       .  S
C983        H990   1.084       .  S
C983       C1354   1.402       .  A
C983        C988   1.409       .  A
C984       C1311   1.468       .  S
C984       C1353   1.402       .  A
C984        C985   1.412       .  A
C985        C986   1.398       .  A
C985        C992   1.521       .  S
C986        H991   1.073       .  S
C986        C987   1.407       .  A
C987       C1358   1.424       .  A
C988       C1357   1.424       .  A
C988        C989   1.515       .  S
C989       F1363   1.383       .  S
C989       F1364   1.378       .  S
C989        F995   1.381       .  S
C992        F996   1.384       .  S
C992       F1367   1.380       .  S
C992        F998   1.381       .  S
F993       C1359   1.383       .  S
F994       C1359   1.378       .  S
F997       C1362   1.380       .  S
C999       H1376   1.082       .  S
C999       C1000   1.404       .  A
C999       C1374   1.409       .  A
C1000      C1001   1.420       .  A
C1001      C1002   1.398       .  A
C1001      C1008   1.515       .  S
C1002      H1007   1.085       .  S
C1002      C1003   1.400       .  A
C1003      C1374   1.419       .  A
C1004      C1369   1.409       .  A
C1004      C1373   1.419       .  A
C1004      C1005   1.516       .  S
C1005      F1379   1.385       .  S
C1005      F1380   1.381       .  S
C1005      F1011   1.384       .  S
H1006      C1369   1.082       .  S
C1008      F1012   1.381       .  S
C1008      F1383   1.379       .  S
C1008      F1384   1.382       .  S
F1009      C1375   1.385       .  S
F1010      C1375   1.381       .  S
F1013      C1378   1.379       .  S
F1014      C1378   1.382       .  S
C1015      H1022   1.080       .  S
C1015      C1016   1.415       .  A
C1015      C1020   1.408       .  A
C1016      C1017   1.444       .  A
C1017      C1018   1.407       .  A
C1017      C1024   1.525       .  S
C1018      H1023   1.083       .  S
C1018      C1019   1.390       .  A
C1019      C1316   1.469       .  S
C1019      C1020   1.405       .  A
C1020      C1021   1.516       .  S
C1021      F1025   1.384       .  S
C1021      F1026   1.383       .  S
C1021      F1397   1.384       .  S
C1024      F1028   1.377       .  S
C1024      F1399   1.379       .  S
C1024      F1400   1.386       .  S
F1027      C1391   1.384       .  S
F1029      C1394   1.379   1_545  S
F1030      C1394   1.386       .  S
C1031      H1038   1.083       .  S
C1031      C1402   1.409       .  A
C1031      C1036   1.410       .  A
C1032      C1401   1.409       .  A
C1032      C1033   1.423       .  A
C1033      C1034   1.398       .  A
C1033      C1040   1.518       .  S
C1034      H1039   1.079       .  S
C1034      C1035   1.399       .  A
C1035      C1406   1.420       .  A
C1036      C1405   1.420       .  A
C1036      C1037   1.515       .  S
C1037      F1041   1.379       .  S
C1037      F1042   1.382       .  S
C1037      F1043   1.377       .  S
C1040      F1044   1.382       .  S
C1040      F1045   1.382       .  S
C1040      F1046   1.385       .  S
C1047      H1054   1.081       .  S
C1047      C1048   1.405   1_655  A
C1047      C1052   1.407       .  A
C1049      C1050   1.408       .  A
C1049      C1056   1.517       .  S
C1050      H1055   1.079       .  S
C1051      C1052   1.423   1_455  A
C1052      C1053   1.518       .  S
C1053      F1057   1.385       .  S
C1053      F1058   1.380       .  S
C1053      F1059   1.384       .  S
C1056      F1060   1.374       .  S
C1056      F1061   1.381       .  S
C1056      F1062   1.384       .  S
C1063      H1070   1.083       .  S
C1063      C1064   1.401   1_655  A
C1063      C1068   1.409       .  A
C1065      C1066   1.409       .  A
C1065      C1072   1.518       .  S
C1066      H1071   1.081       .  S
C1067      C1068   1.423   1_455  A
C1068      C1069   1.517       .  S
C1069      F1073   1.382       .  S
C1069      F1074   1.381       .  S
C1069      F1075   1.383       .  S
C1072      F1076   1.380       .  S
C1072      F1077   1.384       .  S
C1072      F1078   1.385       .  S
C1079      H1086   1.077       .  S
C1079      C1084   1.402       .  A
C1080      C1081   1.420       .  A
C1081      C1082   1.411       .  A
C1081      C1088   1.518       .  S
C1082      H1087   1.081       .  S
C1082      C1083   1.406       .  A
C1084      C1085   1.520       .  S
C1085      F1089   1.385       .  S
C1085      F1090   1.380       .  S
C1085      F1091   1.384       .  S
C1088      F1092   1.383       .  S
C1088      F1093   1.384       .  S
C1088      F1094   1.381       .  S
C1095      H1102   1.083       .  S
C1095      C1100   1.407       .  A
C1096      C1097   1.418       .  A
C1097      C1098   1.405       .  A
C1097      C1104   1.518       .  S
C1098      H1103   1.083       .  S
C1098      C1099   1.406       .  A
C1100      C1101   1.520       .  S
C1101      F1105   1.381       .  S
C1101      F1106   1.381       .  S
C1101      F1107   1.385       .  S
C1104      F1108   1.380       .  S
C1104      F1109   1.383       .  S
C1104      F1110   1.385       .  S
C1111      N1129   1.349   1_545  A
C1111      C1217   1.494       .  S
N1112      N1129   1.322       .  A
N1112     Co1334   2.092       .  S
C1113      N1138   1.341       .  A
C1113      C1151   1.468       .  S
C1113      H1158   1.081       .  S
H1114      C1155   1.078       .  S
C1115      N1139   1.341       .  A
C1115      C1119   1.464       .  S
C1115      H1144   1.076       .  S
Co1116     N1134   2.089       .  S
Co1116     N1124   2.090       .  S
Co1116     N1341   2.081       .  S
Co1116     N1317   2.093       .  S
N1117      C1155   1.343       .  A
N1117     Co1118   2.090       .  S
Co1118     N1121   2.084       .  S
Co1118     N1323   2.089       .  S
Co1118     N1310   2.089       .  S
Co1118    Cl1345   2.455       .  S
C1119      C1188   1.483       .  S
N1120      N1150   1.325       .  A
N1120     Co1338   2.080       .  S
N1121      N1157   1.320       .  A
N1122      N1132   1.325       .  A
H1123      C1148   1.081       .  S
N1124      N1145   1.325       .  A
N1125      N1130   1.326       .  A
N1125     Co1303   2.089       .  S
C1126      N1130   1.352       .  A
N1127      C1142   1.338       .  A
N1127     Co1334   2.080       .  S
C1128      N1156   1.339       .  A
C1128      C1131   1.455       .  S
C1128      H1162   1.077       .  S
N1132     Co1301   2.093   1_554  S
N1133      C1159   1.344       .  A
N1133     Co1149   2.093       .  S
N1134      C1148   1.343       .  A
N1135      N1163   1.322       .  A
N1135     Co1153   2.086       .  S
H1136      C1159   1.081       .  S
H1137      C1154   1.077       .  S
N1138     Co1303   2.089       .  S
N1139     Co1338   2.079       .  S
N1140      N1152   1.324       .  A
N1140     Co1149   2.081       .  S
C1141      N1145   1.352   1_455  A
C1141      C1249   1.488       .  S
C1142      C1161   1.460       .  S
C1142      H1146   1.074       .  S
N1143      C1154   1.338       .  A
N1143     Co1153   2.075       .  S
C1147      N1163   1.348       .  A
Co1149     N1297   2.092   1_554  S
Co1149     N1312   2.080   1_554  S
Co1153     N1305   2.080   1_554  S
Co1153     N1324   2.079   1_554  S
N1156     Co1301   2.081   1_554  S
Cl1160    Co1303   2.455       .  S
C1161      C1281   1.483       .  S
C1164      C1165   1.384   1_655  D
C1164      C1265   1.508       .  S
C1164      C1284   1.503       .  S
C1165      C1233   1.506       .  S
C1165      C1252   1.514       .  S
C1166      C1167   1.390   1_545  D
C1166      C1201   1.528       .  S
C1166      C1220   1.499       .  S
C1167      C1172   1.514       .  S
C1167      C1185   1.500       .  S
C1168      H1175   1.084       .  S
C1168      C1173   1.409       .  A
C1169      C1170   1.412       .  A
C1170      C1171   1.398       .  A
C1170      C1177   1.521   1_565  S
C1171      H1176   1.073   1_565  S
C1171      C1172   1.407       .  A
C1173      C1174   1.515       .  S
C1174      F1180   1.381       .  S
C1177      F1181   1.384   1_545  S
C1177      F1183   1.381       .  S
C1184      C1185   1.404       .  A
C1185      C1186   1.420   1_565  A
C1186      C1187   1.398       .  A
C1186      C1193   1.515       .  S
C1187      H1192   1.085       .  S
C1187      C1188   1.400   1_545  A
C1189      C1190   1.516       .  S
C1190      F1196   1.384       .  S
C1193      F1197   1.381       .  S
C1200      H1207   1.080       .  S
C1200      C1201   1.415       .  A
C1200      C1205   1.408       .  A
C1201      C1202   1.444       .  A
C1202      C1203   1.407       .  A
C1202      C1209   1.525   1_545  S
C1203      H1208   1.083       .  S
C1203      C1204   1.390       .  A
C1204      C1205   1.405       .  A
C1205      C1206   1.516       .  S
C1206      F1210   1.384       .  S
C1206      F1211   1.383       .  S
C1209      F1213   1.377       .  S
C1216      H1223   1.083       .  S
C1216      C1221   1.410       .  A
C1217      C1218   1.423   1_545  A
C1218      C1219   1.398       .  A
C1218      C1225   1.518       .  S
C1219      H1224   1.079       .  S
C1219      C1220   1.399   1_565  A
C1221      C1222   1.515       .  S
C1222      F1226   1.379       .  S
C1222      F1227   1.382       .  S
C1222      F1228   1.377       .  S
C1225      F1229   1.382       .  S
C1225      F1230   1.382       .  S
C1225      F1231   1.385       .  S
C1232      H1239   1.081       .  S
C1232      C1233   1.405   1_655  A
C1232      C1237   1.407       .  A
C1234      C1235   1.408       .  A
C1234      C1241   1.517       .  S
C1235      H1240   1.079       .  S
C1236      C1237   1.423   1_455  A
C1237      C1238   1.518       .  S
C1238      F1242   1.385       .  S
C1238      F1243   1.380       .  S
C1238      F1244   1.384       .  S
C1241      F1245   1.374       .  S
C1241      F1246   1.381       .  S
C1241      F1247   1.384       .  S
C1248      H1255   1.083       .  S
C1248      C1249   1.401   1_655  A
C1248      C1253   1.409       .  A
C1250      C1251   1.409       .  A
C1250      C1257   1.518       .  S
C1251      H1256   1.081       .  S
C1252      C1253   1.423   1_455  A
C1253      C1254   1.517       .  S
C1254      F1258   1.382       .  S
C1254      F1259   1.381       .  S
C1254      F1260   1.383       .  S
C1257      F1261   1.380       .  S
C1257      F1262   1.384       .  S
C1257      F1263   1.385       .  S
C1264      H1271   1.077       .  S
C1264      C1269   1.402       .  A
C1265      C1266   1.420       .  A
C1266      C1267   1.411       .  A
C1266      C1273   1.518       .  S
C1267      H1272   1.081       .  S
C1267      C1268   1.406       .  A
C1269      C1270   1.520       .  S
C1270      F1274   1.385       .  S
C1270      F1275   1.380       .  S
C1270      F1276   1.384       .  S
C1273      F1277   1.383       .  S
C1273      F1278   1.384       .  S
C1273      F1279   1.381       .  S
C1280      H1287   1.083       .  S
C1280      C1285   1.407       .  A
C1281      C1282   1.418       .  A
C1282      C1283   1.405       .  A
C1282      C1289   1.518       .  S
C1283      H1288   1.083       .  S
C1283      C1284   1.406       .  A
C1285      C1286   1.520       .  S
C1286      F1290   1.381       .  S
C1286      F1291   1.381       .  S
C1286      F1292   1.385       .  S
C1289      F1293   1.380       .  S
C1289      F1294   1.383       .  S
C1289      F1295   1.385       .  S
C1296      N1314   1.349   1_545  A
C1296      C1402   1.494       .  S
N1297      N1314   1.322       .  A
C1298      N1323   1.341       .  A
C1298      C1336   1.468       .  S
C1298      H1343   1.081       .  S
H1299      C1340   1.078       .  S
C1300      N1324   1.341       .  A
C1300      C1304   1.464       .  S
C1300      H1329   1.076       .  S
Co1301     N1319   2.089       .  S
Co1301     N1309   2.090       .  S
N1302      C1340   1.343       .  A
N1302     Co1303   2.090   1_556  S
Co1303     N1306   2.084   1_554  S
C1304      C1373   1.483       .  S
N1305      N1335   1.325       .  A
N1306      N1342   1.320       .  A
N1307      N1317   1.325       .  A
H1308      C1333   1.081       .  S
N1309      N1330   1.325       .  A
N1310      N1315   1.326       .  A
C1311      N1315   1.352       .  A
N1312      C1327   1.338       .  A
C1313      N1341   1.339       .  A
C1313      C1316   1.455       .  S
C1313      H1347   1.077       .  S
N1318      C1344   1.344       .  A
N1318     Co1334   2.093       .  S
N1319      C1333   1.343       .  A
N1320      N1348   1.322       .  A
N1320     Co1338   2.086       .  S
H1321      C1344   1.081       .  S
H1322      C1339   1.077       .  S
N1325      N1337   1.324       .  A
N1325     Co1334   2.081       .  S
C1326      N1330   1.352   1_455  A
C1326      C1434   1.488       .  S
C1327      C1346   1.460       .  S
C1327      H1331   1.074       .  S
N1328      C1339   1.338       .  A
N1328     Co1338   2.075       .  S
C1332      N1348   1.348       .  A
C1346      C1466   1.483       .  S
C1349      C1350   1.384   1_655  D
C1349      C1450   1.508       .  S
C1349      C1469   1.503       .  S
C1350      C1418   1.506       .  S
C1350      C1437   1.514       .  S
C1351      C1352   1.390   1_545  D
C1351      C1386   1.528       .  S
C1351      C1405   1.499       .  S
C1352      C1357   1.514       .  S
C1352      C1370   1.500       .  S
C1353      H1360   1.084       .  S
C1353      C1358   1.409       .  A
C1354      C1355   1.412       .  A
C1355      C1356   1.398       .  A
C1355      C1362   1.521   1_565  S
C1356      H1361   1.073   1_565  S
C1356      C1357   1.407       .  A
C1358      C1359   1.515       .  S
C1359      F1365   1.381       .  S
C1362      F1366   1.384   1_545  S
C1362      F1368   1.381       .  S
C1369      C1370   1.404       .  A
C1370      C1371   1.420   1_565  A
C1371      C1372   1.398       .  A
C1371      C1378   1.515       .  S
C1372      H1377   1.085       .  S
C1372      C1373   1.400   1_545  A
C1374      C1375   1.516       .  S
C1375      F1381   1.384       .  S
C1378      F1382   1.381       .  S
C1385      H1392   1.080       .  S
C1385      C1386   1.415       .  A
C1385      C1390   1.408       .  A
C1386      C1387   1.444       .  A
C1387      C1388   1.407       .  A
C1387      C1394   1.525   1_545  S
C1388      H1393   1.083       .  S
C1388      C1389   1.390       .  A
C1389      C1390   1.405       .  A
C1390      C1391   1.516       .  S
C1391      F1395   1.384       .  S
C1391      F1396   1.383       .  S
C1394      F1398   1.377       .  S
C1401      H1408   1.083       .  S
C1401      C1406   1.410       .  A
C1402      C1403   1.423   1_545  A
C1403      C1404   1.398       .  A
C1403      C1410   1.518       .  S
C1404      H1409   1.079       .  S
C1404      C1405   1.399   1_565  A
C1406      C1407   1.515       .  S
C1407      F1411   1.379       .  S
C1407      F1412   1.382       .  S
C1407      F1413   1.377       .  S
C1410      F1414   1.382       .  S
C1410      F1415   1.382       .  S
C1410      F1416   1.385       .  S
C1417      H1424   1.081       .  S
C1417      C1418   1.405   1_655  A
C1417      C1422   1.407       .  A
C1419      C1420   1.408       .  A
C1419      C1426   1.517       .  S
C1420      H1425   1.079       .  S
C1421      C1422   1.423   1_455  A
C1422      C1423   1.518       .  S
C1423      F1427   1.385       .  S
C1423      F1428   1.380       .  S
C1423      F1429   1.384       .  S
C1426      F1430   1.374       .  S
C1426      F1431   1.381       .  S
C1426      F1432   1.384       .  S
C1433      H1440   1.083       .  S
C1433      C1434   1.401   1_655  A
C1433      C1438   1.409       .  A
C1435      C1436   1.409       .  A
C1435      C1442   1.518       .  S
C1436      H1441   1.081       .  S
C1437      C1438   1.423   1_455  A
C1438      C1439   1.517       .  S
C1439      F1443   1.382       .  S
C1439      F1444   1.381       .  S
C1439      F1445   1.383       .  S
C1442      F1446   1.380       .  S
C1442      F1447   1.384       .  S
C1442      F1448   1.385       .  S
C1449      H1456   1.077       .  S
C1449      C1454   1.402       .  A
C1450      C1451   1.420       .  A
C1451      C1452   1.411       .  A
C1451      C1458   1.518       .  S
C1452      H1457   1.081       .  S
C1452      C1453   1.406       .  A
C1454      C1455   1.520       .  S
C1455      F1459   1.385       .  S
C1455      F1460   1.380       .  S
C1455      F1461   1.384       .  S
C1458      F1462   1.383       .  S
C1458      F1463   1.384       .  S
C1458      F1464   1.381       .  S
C1465      H1472   1.083       .  S
C1465      C1470   1.407       .  A
C1466      C1467   1.418       .  A
C1467      C1468   1.405       .  A
C1467      C1474   1.518       .  S
C1468      H1473   1.083       .  S
C1468      C1469   1.406       .  A
C1470      C1471   1.520       .  S
C1471      F1475   1.381       .  S
C1471      F1476   1.381       .  S
C1471      F1477   1.385       .  S
C1474      F1478   1.380       .  S
C1474      F1479   1.383       .  S
C1474      F1480   1.385       .  S
