geometry optimzed in LAMMPS
_audit_creation_date              2020-11-30 
_audit_creation_method            'lammps2cif' 
_symmetry_space_group_name_H-M    'P1' 
_symmetry_Int_Tables_number       1 
_symmetry_cell_setting            triclinic 
loop_ 
_symmetry_equiv_pos_as_xyz 
  x,y,z 
_cell_length_a                    32.13048279 
_cell_length_b                    32.33907801709893 
_cell_length_c                    56.62317070405296 
_cell_angle_alpha                 89.91928594985633 
_cell_angle_beta                  89.97833637503408 
_cell_angle_gamma                 89.85109158065545 
loop_ 
_atom_site_label 
_atom_site_type_symbol 
_atom_site_fract_x 
_atom_site_fract_y 
_atom_site_fract_z 
_atom_site_charge 
Fe1        Fe  0.00941062  0.37622220  0.88244642     1.65800
Fe2        Fe  0.45111924  0.37574659  0.93236855     1.73200
Fe3        Fe  0.05623907  0.37470159  0.93599981     1.54400
O4          O  0.08793874  0.33625759  0.91243033    -0.82500
O5          O  0.46706590  0.42643151  0.95271390    -0.80800
O6          O  0.04646942  0.32439736  0.88163696    -0.85000
O7          O  0.06141434  0.41429091  0.88211335    -0.79900
O8          O  0.03795806  0.32292893  0.95417485    -0.81600
O9          O  0.42545965  0.41703786  0.90821183    -0.84400
C10         C  0.08136172  0.43471505  0.89754874     0.96400
C11         C  0.07913173  0.31700342  0.89346655     1.03800
O12         O  0.50549729  0.37500844  0.91694174    -1.13400
O13         O  0.43003981  0.32585147  0.91298800    -0.75800
O14         O  0.45821223  0.33785758  0.87768788    -0.79300
O15         O  0.07794949  0.42719052  0.91943828    -0.80000
C16         C  0.43282580  0.31867958  0.89098866     0.95300
O17         O  0.47314436  0.42872220  0.88056948    -0.77900
O18         O  0.46986274  0.33437479  0.95865350    -0.83100
C19         C  0.49909426  0.43364179  0.96509452     0.97900
C20         C  0.50319174  0.31482286  0.96371508     1.03800
O21         O  0.03221081  0.41255224  0.96252907    -0.78800
C22         C  0.43912706  0.43764127  0.89070472     1.02100
Fe23       Fe  0.25779778  0.12757825  0.86726501     1.65800
Fe24       Fe  0.25373145  0.17585384  0.81423359     1.73200
Fe25       Fe  0.25520207  0.07114840  0.81669579     1.54400
O26         O  0.29730700  0.04460711  0.84014672    -0.82500
O27         O  0.20111552  0.15806857  0.79626235    -0.80800
O28         O  0.31050519  0.09117801  0.86792562    -0.85000
O29         O  0.21922294  0.07672489  0.87194506    -0.79900
O30         O  0.30535080  0.08750937  0.79587478    -0.81600
O31         O  0.21566008  0.20625207  0.83835167    -0.84400
C32         C  0.19971736  0.05168138  0.85868836     0.96400
C33         C  0.31871853  0.05745176  0.85752145     1.03800
O34         O  0.25503291  0.12477762  0.83273989    -1.13400
O35         O  0.30683447  0.19766896  0.83051746    -0.75800
O36         O  0.29650706  0.17900193  0.86775546    -0.79300
O37         O  0.20610003  0.04958696  0.83658038    -0.80000
C38         C  0.31584338  0.19997584  0.85227098     0.95300
O39         O  0.20580388  0.16481073  0.86934048    -0.77900
O40         O  0.29133498  0.15302597  0.78737372    -0.83100
C41         C  0.19296966  0.12392827  0.78629543     0.97900
C42         C  0.31239872  0.12022098  0.78419653     1.03800
O43         O  0.21276872  0.09064589  0.79090791    -0.78800
C44         C  0.19758756  0.19735349  0.85769474     1.02100
Fe45       Fe  0.25742900  0.37887791  0.61862364     1.65800
Fe46       Fe  0.20198783  0.37877944  0.56743784     1.73200
Fe47       Fe  0.30833119  0.37734406  0.56607973     1.54400
O48         O  0.33291195  0.42674548  0.58391648    -0.82500
O49         O  0.22061295  0.33562131  0.54263578    -0.80800
O50         O  0.30954499  0.41702047  0.62049257    -0.85000
O51         O  0.29316548  0.32610946  0.61943073    -0.79900
O52         O  0.28734395  0.41923024  0.54071667    -0.81600
O53         O  0.17844060  0.33080332  0.58710874    -0.84400
C54         C  0.32542940  0.31609702  0.60790056     0.96400
C55         C  0.33320729  0.43501412  0.60573593     1.03800
O56         O  0.25585056  0.37846374  0.58396580    -1.13400
O57         O  0.17662295  0.42175756  0.59034013    -0.75800
O58         O  0.22130261  0.43111029  0.62009217    -0.79300
O59         O  0.33644250  0.33554108  0.58933858    -0.80000
C60         C  0.18847297  0.44050099  0.60886343     0.95300
O61         O  0.20543110  0.34135662  0.62273735    -0.77900
O62         O  0.21892440  0.42688914  0.54579137    -0.83100
C63         C  0.25458335  0.31770004  0.53740586     0.97900
C64         C  0.25284577  0.43668959  0.53589065     1.03800
O65         O  0.28936594  0.32784445  0.54617283    -0.78800
C66         C  0.17983614  0.32354567  0.60906265     1.02100
Fe67       Fe  0.00850489  0.12810934  0.63279025     1.65800
Fe68       Fe  0.00550749  0.07390429  0.68339334     1.73200
Fe69       Fe  0.00366158  0.17814938  0.68477305     1.54400
O70         O  0.05520820  0.20234677  0.66799037    -0.82500
O71         O  0.46697392  0.09329066  0.71064150    -0.80800
O72         O  0.04343018  0.18226985  0.63102093    -0.85000
O73         O  0.45388709  0.16150099  0.63095392    -0.79900
O74         O  0.04361726  0.15566670  0.71106455    -0.81600
O75         O  0.45364159  0.05533746  0.66500223    -0.84400
C76         C  0.44440973  0.19447188  0.64190949     0.96400
C77         C  0.06200256  0.20492234  0.64597833     1.03800
O78         O  0.00595643  0.12697082  0.66706784    -1.13400
O79         O  0.04356681  0.04619173  0.65847665    -0.75800
O80         O  0.06342983  0.09501520  0.63365288    -0.79300
O81         O  0.46394480  0.20620064  0.66032746    -0.80000
C82         C  0.06837657  0.05957490  0.64280595     0.95300
O83         O  0.47352386  0.07414458  0.62887153    -0.77900
O84         O  0.05748433  0.08948691  0.70278945    -0.83100
C85         C  0.44486052  0.12530670  0.71394120     0.97900
C86         C  0.06442105  0.12243846  0.71432792     1.03800
O87         O  0.45140225  0.15863752  0.70275361    -0.78800
C88         C  0.45063390  0.05309617  0.64271625     1.02100
Fe89       Fe  0.23740467  0.12908018  0.38463769     1.65800
Fe90       Fe  0.29772643  0.12790326  0.43476778     1.73200
Fe91       Fe  0.19166771  0.12993761  0.43926745     1.54400
O92         O  0.16595977  0.17750506  0.41995911    -0.82500
O93         O  0.28122178  0.08092731  0.45766695    -0.80800
O94         O  0.19420580  0.17618143  0.38436095    -0.85000
O95         O  0.19079385  0.08551662  0.38396438    -0.79900
O96         O  0.21412630  0.17437934  0.46178948    -0.81600
O97         O  0.32019871  0.08374227  0.41209823    -0.84400
C98         C  0.16420739  0.07216044  0.39859135     0.96400
C99         C  0.16877307  0.19138379  0.39910566     1.03800
O100        O  0.24231585  0.12902975  0.41954876    -1.13400
O101        O  0.32118965  0.17412349  0.41353395    -0.75800
O102        O  0.28413361  0.17264494  0.38017277    -0.79300
O103        O  0.16153249  0.08559784  0.41953975    -0.80000
C104        C  0.31388403  0.18636314  0.39265332     0.95300
O105        O  0.27877513  0.08108910  0.38071831    -0.77900
O106        O  0.28309837  0.17225253  0.45964007    -0.83100
C107        C  0.24732759  0.06751117  0.46624212     0.97900
C108        C  0.24968175  0.18683558  0.46815960     1.03800
O109        O  0.21204550  0.08262656  0.46096516    -0.78800
C110        C  0.30971559  0.06824651  0.39245036     1.02100
Fe111      Fe  0.48679313  0.37899728  0.37105058     1.65800
Fe112      Fe  0.49601300  0.32794665  0.31898199     1.73200
Fe113      Fe  0.49510637  0.43262235  0.31999334     1.54400
O114        O  0.45449260  0.46188728  0.34312533    -0.82500
O115        O  0.04835172  0.34665718  0.30099849    -0.80800
O116        O  0.43426750  0.41464594  0.36904226    -0.85000
O117        O  0.02469260  0.43053821  0.37579265    -0.79900
O118        O  0.44519233  0.41702326  0.29894236    -0.81600
O119        O  0.03543065  0.30096556  0.34346327    -0.84400
C120        C  0.04784207  0.45224926  0.36244640     0.96400
C121        C  0.42996928  0.44950461  0.35921327     1.03800
O122        O  0.49263878  0.37958338  0.33666710    -1.13400
O123        O  0.44474612  0.30275396  0.33530847    -0.75800
O124        O  0.44816997  0.32794963  0.37181526    -0.79300
O125        O  0.04525214  0.45137831  0.34005723    -0.80000
C126        C  0.43305284  0.30339373  0.35666665     0.95300
O127        O  0.03838454  0.34221716  0.37514293    -0.77900
O128        O  0.45619559  0.34954885  0.29261844    -0.83100
C129        C  0.05619963  0.37962826  0.28984897     0.97900
C130        C  0.43705670  0.38333268  0.28837548     1.03800
O131        O  0.03567124  0.41224342  0.29395550    -0.78800
C132        C  0.05037219  0.31093164  0.36344893     1.02100
Fe133      Fe  0.49242061  0.13204393  0.11793323     1.65800
Fe134      Fe  0.04818178  0.12751976  0.06704514     1.73200
Fe135      Fe  0.44232004  0.12947713  0.06463142     1.54400
O136        O  0.41415550  0.08737408  0.08738023    -0.82500
O137        O  0.03310061  0.17543169  0.04449148    -0.80800
O138        O  0.45382799  0.08132095  0.11973962    -0.85000
O139        O  0.44204183  0.17182920  0.11915869    -0.79900
O140        O  0.46076272  0.08030299  0.04365002    -0.81600
O141        O  0.07529431  0.17079400  0.08965621    -0.84400
C142        C  0.41826152  0.18929494  0.10432269     0.96400
C143        C  0.42290440  0.07075706  0.10718171     1.03800
O144        O  0.99419929  0.12981019  0.08313686    -1.13400
O145        O  0.06815759  0.07893613  0.08741448    -0.75800
O146        O  0.04323710  0.09317911  0.12293568    -0.79300
O147        O  0.41770296  0.17919430  0.08272733    -0.80000
C148        C  0.06757024  0.07317185  0.10949800     0.95300
O149        O  0.03049099  0.18300252  0.11890857    -0.77900
O150        O  0.02912910  0.08349404  0.04286227    -0.83100
C151        C  0.99923940  0.18713982  0.03504424     0.97900
C152        C  0.49547066  0.06712639  0.03604156     1.03800
O153        O  0.46412136  0.17160513  0.04012400    -0.78800
C154        C  0.06409626  0.19067515  0.10801900     1.02100
Fe155      Fe  0.24311911  0.38163358  0.13478498     1.65800
Fe156      Fe  0.24759400  0.43264258  0.18746307     1.73200
Fe157      Fe  0.24684726  0.32730343  0.18624882     1.54400
O158        O  0.20484960  0.29889558  0.16342288    -0.82500
O159        O  0.29792516  0.41468676  0.20735005    -0.80800
O160        O  0.19256264  0.34231091  0.13412659    -0.85000
O161        O  0.28443099  0.33300802  0.13095304    -0.79900
O162        O  0.19688186  0.34499247  0.20727925    -0.81600
O163        O  0.28866778  0.46008071  0.16436648    -0.84400
C164        C  0.30327003  0.30771914  0.14441029     0.96400
C165        C  0.18456911  0.30908389  0.14505071     1.03800
O166        O  0.24620767  0.38059347  0.16947493    -1.13400
O167        O  0.19685849  0.45743151  0.16955852    -0.75800
O168        O  0.20145232  0.42969658  0.13367710    -0.79300
O169        O  0.29612692  0.30506150  0.16643526    -0.80000
C170        C  0.18573944  0.45525281  0.14806099     0.95300
O171        O  0.29255648  0.42241687  0.13159930    -0.77900
O172        O  0.20787578  0.41160963  0.21340091    -0.83100
C173        C  0.30793215  0.38053101  0.21674894     0.97900
C174        C  0.18863657  0.37845567  0.21808312     1.03800
O175        O  0.28981908  0.34685088  0.21147874    -0.78800
C176        C  0.30393681  0.45297927  0.14411405     1.02100
C177        C  0.13919214  0.28144417  0.11150562    -0.02700
C178        C  0.15110941  0.28075399  0.13579113     0.07000
C179        C  0.13133532  0.25166939  0.15096971    -0.02800
C180        C  0.10332773  0.22224356  0.14179383    -0.02800
C181        C  0.09213841  0.22299316  0.11770555     0.07100
C182        C  0.10880278  0.25378741  0.10291147    -0.03000
Br183      Br  0.08807065  0.25952094  0.07098780    -0.01500
Br184      Br  0.16518964  0.31792715  0.08875775    -0.01600
Br185      Br  0.08200179  0.17922821  0.16231092    -0.01600
Br186      Br  0.14016769  0.25191962  0.18477705    -0.01600
C187        C  0.37576023  0.28015563  0.13953154    -0.02700
C188        C  0.33330155  0.27890758  0.13349843     0.07000
C189        C  0.31918919  0.25026563  0.11655225    -0.02800
C190        C  0.34700583  0.22159499  0.10648286    -0.02800
C191        C  0.38954076  0.22203165  0.11291863     0.07100
C192        C  0.40399850  0.25256103  0.12880234    -0.03000
Br193      Br  0.46287578  0.25888981  0.13461397    -0.01500
Br194      Br  0.39533646  0.32035344  0.16210095    -0.01600
Br195      Br  0.32561549  0.18066703  0.08481513    -0.01600
Br196      Br  0.26098162  0.24887177  0.10794874    -0.01600
C197        C  0.33000057  0.02568389  0.13864682    -0.02700
C198        C  0.33531915  0.48262282  0.13474350     0.07000
C199        C  0.37085264  0.46865340  0.12217391    -0.02800
C200        C  0.39986256  0.49740379  0.11318948    -0.02800
C201        C  0.39383275  0.03998885  0.11690399     0.07100
C202        C  0.35959243  0.05391970  0.13012722    -0.03000
Br203      Br  0.35398575  0.11215912  0.13711550    -0.01500
Br204      Br  0.28136024  0.04753908  0.15457470    -0.01600
Br205      Br  0.44857746  0.47875632  0.09630374    -0.01600
Br206      Br  0.38153330  0.41030530  0.11817348    -0.01600
C207        C  0.16611889  0.01006822  0.11919842    -0.02700
C208        C  0.15496311  0.48505685  0.13861858     0.09400
C209        C  0.11466119  0.48821628  0.14828307    -0.02800
C210        C  0.08578402  0.51676643  0.13884568    -0.02800
C211        C  0.09737151  0.04281557  0.11979071     0.07100
C212        C  0.13807793  0.03959282  0.11030298    -0.03000
Br213      Br  0.15759304  0.07725500  0.08607632    -0.01500
Br214      Br  0.22027686  0.00429771  0.10450909    -0.01600
Br215      Br  0.02988102  0.51804866  0.15148634    -0.01600
Br216      Br  0.09781042  0.45086048  0.17307729    -0.01600
C217        C  0.14277293  0.34235034  0.24812290    -0.02700
C218        C  0.15539098  0.37933805  0.23679495     0.07000
C219        C  0.13584141  0.41701452  0.24365807    -0.02800
C220        C  0.10544625  0.41749168  0.26172097    -0.02800
C221        C  0.09023118  0.37978585  0.27148058     0.07100
C222        C  0.10812286  0.34209596  0.26336252    -0.03000
Br223      Br  0.08419521  0.28853547  0.27060720    -0.01500
Br224      Br  0.17488460  0.29177910  0.24529086    -0.01600
Br225      Br  0.08624740  0.47120858  0.27262945    -0.01600
Br226      Br  0.14906713  0.46940379  0.22860084    -0.01600
C227        C  0.36723499  0.36041792  0.27405136    -0.02700
C228        C  0.40392257  0.38319498  0.27025529     0.07000
C229        C  0.40917919  0.40524533  0.24900404    -0.02800
C230        C  0.37832700  0.40371443  0.23131454    -0.02800
C231        C  0.34152504  0.38043905  0.23490219     0.07100
C232        C  0.33613958  0.35896499  0.25651379    -0.03000
Br233      Br  0.28522644  0.32947898  0.26312889    -0.01500
Br234      Br  0.35854580  0.33325173  0.30403706    -0.01600
Br235      Br  0.38794303  0.43226992  0.20179316    -0.01600
Br236      Br  0.45933120  0.43688332  0.24395307    -0.01600
C237        C  0.07312061  0.26168373  0.39447550    -0.02700
C238        C  0.08220671  0.28389529  0.37380864     0.07000
C239        C  0.12053004  0.27856011  0.36235290    -0.02800
C240        C  0.14962877  0.24975851  0.37101868    -0.02800
C241        C  0.14024569  0.22552335  0.39140076     0.07100
C242        C  0.10185630  0.23280576  0.40344468    -0.03000
Br243      Br  0.08552668  0.20294031  0.43167963    -0.01500
Br244      Br  0.01942849  0.26880680  0.40955767    -0.01600
Br245      Br  0.20203235  0.24540891  0.35429887    -0.01600
Br246      Br  0.13306542  0.31139843  0.33466401    -0.01600
C247        C  0.38149572  0.20241961  0.37327749    -0.02700
C248        C  0.34290134  0.21640505  0.38209388     0.07000
C249        C  0.33328910  0.25890631  0.38169476    -0.02800
C250        C  0.36238176  0.28743147  0.37276113    -0.02800
C251        C  0.40137158  0.27351548  0.36451151     0.07100
C252        C  0.41086179  0.23094036  0.36473095    -0.03000
Br253      Br  0.46509202  0.21186885  0.35467784    -0.01500
Br254      Br  0.39423293  0.14404766  0.37298606    -0.01600
Br255      Br  0.34863123  0.34551331  0.37144453    -0.01600
Br256      Br  0.28089106  0.27814615  0.39404758    -0.01600
C257        C  0.35231544  0.00477288  0.39867650    -0.02700
C258        C  0.33552756  0.03426339  0.38295359     0.07000
C259        C  0.34653054  0.03288047  0.35878476    -0.02800
C260        C  0.37512848  0.00304331  0.35076181    -0.02800
C261        C  0.39591785  0.47711780  0.36713361     0.07100
C262        C  0.38442563  0.47842226  0.39125395    -0.03000
Br263      Br  0.41487306  0.44799123  0.41513414    -0.01500
Br264      Br  0.32990102  0.49861216  0.43022815    -0.01600
Br265      Br  0.38436732  0.99742229  0.31713620    -0.01600
Br266      Br  0.32497020  0.07299430  0.33650195    -0.01600
C267        C  0.14938279  0.00357149  0.37977189    -0.02700
C268        C  0.13465559  0.04000437  0.39072166     0.07000
C269        C  0.09141813  0.04602117  0.39367792    -0.02800
C270        C  0.06320035  0.01593012  0.38569861    -0.02800
C271        C  0.07783374  0.48087962  0.37344435     0.07100
C272        C  0.12096267  0.47434777  0.37091317    -0.03000
Br273      Br  0.14098412  0.42440711  0.35618199    -0.01500
Br274      Br  0.20846637  0.49292791  0.37756006    -0.01600
Br275      Br  0.00431302  0.02335437  0.39114390    -0.01600
Br276      Br  0.07027365  0.09711283  0.40666891    -0.01600
C277        C  0.27372867  0.00698228  0.52168057    -0.02700
C278        C  0.25185850  0.46985136  0.51788875     0.07000
C279        C  0.22789748  0.46500024  0.49717561    -0.02800
C280        C  0.22721443  0.99645664  0.47992132    -0.02800
C281        C  0.24918774  0.03357156  0.48372888     0.07100
C282        C  0.27211577  0.03887184  0.50474868    -0.03000
Br283      Br  0.29911862  0.09100219  0.51108436    -0.01500
Br284      Br  0.30341180  0.01544023  0.55088885    -0.01600
Br285      Br  0.19766676  0.98789062  0.45062792    -0.01600
Br286      Br  0.19605045  0.41514268  0.49234453    -0.01600
C287        C  0.27776126  0.28699817  0.49926612    -0.02700
C288        C  0.25378577  0.28390904  0.52001855     0.07000
C289        C  0.22918101  0.24863648  0.52406805    -0.02800
C290        C  0.22763347  0.21695306  0.50708036    -0.02800
C291        C  0.25197586  0.21974818  0.48628644     0.07100
C292        C  0.27766282  0.25463547  0.48271102    -0.03000
Br293      Br  0.31167147  0.25956736  0.45475486    -0.01500
Br294      Br  0.30865684  0.33696487  0.49273121    -0.01600
Br295      Br  0.19320870  0.16911076  0.51306774    -0.01600
Br296      Br  0.19916859  0.24280947  0.55347640    -0.01600
C297        C  0.10659963  0.30042629  0.61637017    -0.02700
C298        C  0.14979854  0.29368308  0.61911155     0.07000
C299        C  0.16397656  0.25829497  0.63129696    -0.02800
C300        C  0.13518439  0.22948944  0.64027580    -0.02800
C301        C  0.09214711  0.23586232  0.63723538     0.07100
C302        C  0.07788072  0.27161694  0.62545175    -0.03000
Br303      Br  0.01886118  0.28177732  0.62245528    -0.01500
Br304      Br  0.08657648  0.35005283  0.60103298    -0.01600
Br305      Br  0.15469336  0.18040383  0.65598794    -0.01600
Br306      Br  0.22288392  0.24807501  0.63468715    -0.01600
C307        C  0.35551076  0.27220235  0.64107077    -0.02700
C308        C  0.35172315  0.28096785  0.61656915     0.07000
C309        C  0.37426660  0.25628034  0.60032396    -0.02800
C310        C  0.40463580  0.22806053  0.60838182    -0.02800
C311        C  0.40995298  0.22103402  0.63287157     0.07100
C312        C  0.38308007  0.24115674  0.64894520    -0.03000
Br313      Br  0.38208337  0.22469392  0.68182966    -0.01500
Br314      Br  0.32510817  0.30319960  0.66471204    -0.01600
Br315      Br  0.44019859  0.20138502  0.58539380    -0.01600
Br316      Br  0.36183956  0.25837390  0.56690280    -0.01600
C317        C  0.40626295  0.45818119  0.61290809    -0.02700
C318        C  0.36313125  0.46612995  0.61437417     0.07000
C319        C  0.34887866  0.00373037  0.62407526    -0.02800
C320        C  0.37755935  0.03244439  0.63324117    -0.02800
C321        C  0.42054015  0.02382922  0.63246650     0.07100
C322        C  0.43489362  0.48693060  0.62199983    -0.03000
Br323      Br  0.49383405  0.47515218  0.62083165    -0.01500
Br324      Br  0.42621073  0.40738923  0.59894690    -0.01600
Br325      Br  0.35830370  0.08424277  0.64618326    -0.01600
Br326      Br  0.29029044  0.01687614  0.62347850    -0.01600
C327        C  0.12017046  0.03569552  0.61175574    -0.02700
C328        C  0.10278968  0.03181392  0.63479090     0.07000
C329        C  0.11710928  0.99927171  0.64975372    -0.02800
C330        C  0.14585739  0.47005875  0.64129742    -0.02800
C331        C  0.16170271  0.47349714  0.61824484     0.07100
C332        C  0.14980109  0.50679646  0.60376219    -0.03000
Br333      Br  0.17478345  0.51291824  0.57285071    -0.01500
Br334      Br  0.10276011  0.07839132  0.58986798    -0.01600
Br335      Br  0.16133235  0.42329248  0.66090205    -0.01600
Br336      Br  0.09868392  0.99314093  0.68221905    -0.01600
C337        C  0.16981323  0.11136643  0.74467288    -0.02700
C338        C  0.15996028  0.12320550  0.76799130     0.07000
C339        C  0.11893037  0.13551243  0.77343811    -0.02800
C340        C  0.08760315  0.13390175  0.75607122    -0.02800
C341        C  0.09735417  0.12205032  0.73273467     0.07100
C342        C  0.13863539  0.11049128  0.72715208    -0.03000
Br343      Br  0.15322860  0.09477556  0.69537387    -0.01500
Br344      Br  0.22694308  0.10024676  0.73616611    -0.01600
Br345      Br  0.03063170  0.14497757  0.76483149    -0.01600
Br346      Br  0.10534595  0.15510269  0.80460974    -0.01600
C347        C  0.37247245  0.15600116  0.76427419    -0.02700
C348        C  0.34661660  0.12076027  0.76635555     0.07000
C349        C  0.35362251  0.08666337  0.75116521    -0.02800
C350        C  0.38503795  0.08846610  0.73375228    -0.02800
C351        C  0.41077351  0.12379952  0.73174451     0.07100
C352        C  0.40425881  0.15748491  0.74719024    -0.03000
Br353      Br  0.44000630  0.20559300  0.74610574    -0.01500
Br354      Br  0.36696338  0.20204187  0.78576248    -0.01600
Br355      Br  0.39047862  0.04310419  0.71169306    -0.01600
Br356      Br  0.31969411  0.03743603  0.75328336    -0.01600
C357        C  0.46087099  0.00730723  0.01385558    -0.02700
C358        C  0.49678102  0.03192288  0.01834833     0.07000
C359        C  0.03376929  0.02276422  0.00532453    -0.02800
C360        C  0.03412480  0.49131234  0.98797072    -0.02800
C361        C  0.49802662  0.46766458  0.98321218     0.07100
C362        C  0.46128664  0.47638137  0.99617428    -0.03000
Br363      Br  0.41066561  0.44540259  0.99054988    -0.01500
Br364      Br  0.41061723  0.01253180  0.03266191    -0.01600
Br365      Br  0.08451947  0.48307721  0.96967731    -0.01600
Br366      Br  0.08565259  0.05218029  0.01039975    -0.01600
C367        C  0.48409210  0.25934267  0.02188311    -0.02700
C368        C  0.00068651  0.21992856  0.01701047     0.07000
C369        C  0.01815119  0.21156421  0.99472531    -0.02800
C370        C  0.01852139  0.24236901  0.97716663    -0.02800
C371        C  0.00176005  0.28193060  0.98190190     0.07100
C372        C  0.48510651  0.29047746  0.00448502    -0.03000
Br373      Br  0.46658864  0.34563337  0.01233168    -0.01500
Br374      Br  0.46133742  0.27099311  0.05274296    -0.01600
Br375      Br  0.04094841  0.22951724  0.94646322    -0.01600
Br376      Br  0.04045403  0.15730684  0.98805743    -0.01600
C377        C  0.17937713  0.26838788  0.87147314    -0.02700
C378        C  0.16703667  0.22720592  0.86732327     0.07000
C379        C  0.12562790  0.21531206  0.87200920    -0.02800
C380        C  0.09630682  0.24497998  0.87960427    -0.02800
C381        C  0.10901579  0.28590439  0.88440064     0.07100
C382        C  0.15065677  0.29746282  0.88017086    -0.03000
Br383      Br  0.16808721  0.35399047  0.88464868    -0.01500
Br384      Br  0.23634846  0.28489229  0.86635692    -0.01600
Br385      Br  0.03868947  0.22944231  0.88290387    -0.01600
Br386      Br  0.10884562  0.15848930  0.86807632    -0.01600
C387        C  0.37576155  0.21758248  0.87914547    -0.02700
C388        C  0.34915657  0.22888571  0.86025481     0.07000
C389        C  0.35284040  0.26897725  0.85033044    -0.02800
C390        C  0.38031112  0.29801395  0.86036358    -0.02800
C391        C  0.40484544  0.28741185  0.88017453     0.07100
C392        C  0.40260297  0.24694017  0.88940518    -0.03000
Br393      Br  0.43668822  0.23116391  0.91601619    -0.01500
Br394      Br  0.37833716  0.16090443  0.88994145    -0.01600
Br395      Br  0.38146852  0.35369424  0.84800556    -0.01600
Br396      Br  0.31969236  0.28575293  0.82342585    -0.01600
C397        C  0.37908916  0.50968032  0.84956535    -0.02700
C398        C  0.35412515  0.03153903  0.86598537     0.07000
C399        C  0.36274440  0.02734958  0.89040426    -0.02800
C400        C  0.39324486  0.99911675  0.89814245    -0.02800
C401        C  0.41377911  0.47300843  0.88187307     0.07100
C402        C  0.40825906  0.48008359  0.85741059    -0.03000
Br403      Br  0.43950711  0.44917522  0.83413867    -0.01500
Br404      Br  0.37525887  0.52145582  0.81613829    -0.01600
Br405      Br  0.40898497  0.99865936  0.93106529    -0.01600
Br406      Br  0.33214591  0.05825856  0.91396771    -0.01600
C407        C  0.12863451  0.01952843  0.85959712    -0.02700
C408        C  0.16864999  0.02353753  0.86956518     0.07000
C409        C  0.17890547  0.00039084  0.88997984    -0.02800
C410        C  0.15005860  0.47239445  0.89975914    -0.02800
C411        C  0.11026488  0.46767232  0.88938161     0.07100
C412        C  0.09918572  0.49295400  0.86995315    -0.03000
Br413      Br  0.04257606  0.49414442  0.85846701    -0.01500
Br414      Br  0.11344323  0.05060695  0.83173417    -0.01600
Br415      Br  0.16674156  0.43957358  0.92679382    -0.01600
Br416      Br  0.23378632  0.00413515  0.90371119    -0.01600
Fe417      Fe  0.00941052  0.87622098  0.88244695     1.65800
Fe418      Fe  0.45111969  0.87574746  0.93236860     1.73200
Fe419      Fe  0.05623896  0.87470218  0.93600035     1.54400
O420        O  0.08793869  0.83625730  0.91243124    -0.82500
O421        O  0.46706682  0.92643186  0.95271424    -0.80800
O422        O  0.04646946  0.82439622  0.88163793    -0.85000
O423        O  0.06141418  0.91428979  0.88211349    -0.79900
O424        O  0.03795823  0.82293016  0.95417598    -0.81600
O425        O  0.42546005  0.91703931  0.90821232    -0.84400
C426        C  0.08136143  0.93471443  0.89754869     0.96400
C427        C  0.07913180  0.81700264  0.89346757     1.03800
O428        O  0.50549756  0.87500935  0.91694164    -1.13400
O429        O  0.43003987  0.82585289  0.91298778    -0.75800
O430        O  0.45821197  0.83785946  0.87768764    -0.79300
O431        O  0.07794912  0.92719056  0.91943829    -0.80000
C432        C  0.43282570  0.81868122  0.89098841     0.95300
O433        O  0.47314470  0.92872398  0.88056997    -0.77900
O434        O  0.46986342  0.83437503  0.95865309    -0.83100
C435        C  0.49909503  0.93364126  0.96509505     0.97900
C436        C  0.50319232  0.81482274  0.96371440     1.03800
O437        O  0.03221057  0.91255390  0.96252912    -0.78800
C438        C  0.43912749  0.93764296  0.89070531     1.02100
Fe439      Fe  0.25779887  0.62757816  0.86726493     1.65800
Fe440      Fe  0.25373189  0.67585467  0.81423378     1.73200
Fe441      Fe  0.25520194  0.57114913  0.81669548     1.54400
O442        O  0.29730712  0.54460719  0.84014609    -0.82500
O443        O  0.20111575  0.65806999  0.79626250    -0.80800
O444        O  0.31050642  0.59117794  0.86792490    -0.85000
O445        O  0.21922429  0.57672457  0.87194501    -0.79900
O446        O  0.30535045  0.58751012  0.79587435    -0.81600
O447        O  0.21566068  0.70625248  0.83835220    -0.84400
C448        C  0.19971811  0.55168152  0.85868831     0.96400
C449        C  0.31871914  0.55745154  0.85752069     1.03800
O450        O  0.25503334  0.62477812  0.83273981    -1.13400
O451        O  0.30683507  0.69766943  0.83051759    -0.75800
O452        O  0.29650786  0.67900204  0.86775552    -0.79300
O453        O  0.20610009  0.54958768  0.83658024    -0.80000
C454        C  0.31584396  0.69997628  0.85227110     0.95300
O455        O  0.20580492  0.66481058  0.86934085    -0.77900
O456        O  0.29133533  0.65302707  0.78737372    -0.83100
C457        C  0.19296954  0.62392987  0.78629549     0.97900
C458        C  0.31239864  0.62022187  0.78419627     1.03800
O459        O  0.21276833  0.59064727  0.79090786    -0.78800
C460        C  0.19758838  0.69735354  0.85769530     1.02100
Fe461      Fe  0.25743055  0.87887771  0.61862273     1.65800
Fe462      Fe  0.20198936  0.87878063  0.56743669     1.73200
Fe463      Fe  0.30833315  0.87734481  0.56607885     1.54400
O464        O  0.33291430  0.92674559  0.58391592    -0.82500
O465        O  0.22061387  0.83562066  0.54263595    -0.80800
O466        O  0.30954596  0.91702093  0.62049178    -0.85000
O467        O  0.29316772  0.82610961  0.61942966    -0.79900
O468        O  0.28734677  0.91923172  0.54071585    -0.81600
O469        O  0.17844004  0.83080601  0.58710825    -0.84400
C470        C  0.32543141  0.81609690  0.60789934     0.96400
C471        C  0.33320883  0.93501436  0.60573536     1.03800
O472        O  0.25585218  0.87846446  0.58396483    -1.13400
O473        O  0.17662566  0.92176029  0.59033817    -0.75800
O474        O  0.22130326  0.93110956  0.62009164    -0.79300
O475        O  0.33644431  0.83554092  0.58933734    -0.80000
C476        C  0.18847476  0.94050194  0.60886222     0.95300
O477        O  0.20543333  0.84135556  0.62273648    -0.77900
O478        O  0.21892670  0.92688880  0.54578888    -0.83100
C479        C  0.25458445  0.81769998  0.53740595     0.97900
C480        C  0.25284849  0.93669001  0.53588882     1.03800
O481        O  0.28936738  0.82784580  0.54617191    -0.78800
C482        C  0.17983683  0.82354644  0.60906194     1.02100
Fe483      Fe  0.00850366  0.62811036  0.63279032     1.65800
Fe484      Fe  0.00550706  0.57390549  0.68339355     1.73200
Fe485      Fe  0.00366119  0.67815071  0.68477311     1.54400
O486        O  0.05520749  0.70234831  0.66798999    -0.82500
O487        O  0.46697383  0.59328987  0.71064128    -0.80800
O488        O  0.04342931  0.68227079  0.63102067    -0.85000
O489        O  0.45388831  0.66149975  0.63095309    -0.79900
O490        O  0.04361739  0.65566828  0.71106435    -0.81600
O491        O  0.45364208  0.55533632  0.66500203    -0.84400
C492        C  0.44441081  0.69447069  0.64190859     0.96400
C493        C  0.06200187  0.70492351  0.64597791     1.03800
O494        O  0.00595582  0.62697200  0.66706795    -1.13400
O495        O  0.04356611  0.54619287  0.65847686    -0.75800
O496        O  0.06342852  0.59501583  0.63365254    -0.79300
O497        O  0.46394539  0.70619930  0.66032677    -0.80000
C498        C  0.06837555  0.55957577  0.64280595     0.95300
O499        O  0.47352469  0.57414315  0.62887132    -0.77900
O500        O  0.05748406  0.58948830  0.70278955    -0.83100
C501        C  0.44486044  0.62530599  0.71394080     0.97900
C502        C  0.06442101  0.62243999  0.71432786     1.03800
O503        O  0.45140228  0.65863663  0.70275305    -0.78800
C504        C  0.45063441  0.55309502  0.64271604     1.02100
Fe505      Fe  0.23740629  0.62908507  0.38464031     1.65800
Fe506      Fe  0.29772656  0.62790087  0.43477059     1.73200
Fe507      Fe  0.19166736  0.62993846  0.43926967     1.54400
O508        O  0.16595888  0.67750570  0.41996148    -0.82500
O509        O  0.28122018  0.58092334  0.45766802    -0.80800
O510        O  0.19421049  0.67618912  0.38436498    -0.85000
O511        O  0.19079227  0.58552478  0.38396550    -0.79900
O512        O  0.21412585  0.67437950  0.46179164    -0.81600
O513        O  0.32019838  0.58374129  0.41209958    -0.84400
C514        C  0.16420629  0.57216657  0.39859222     0.96400
C515        C  0.16877509  0.69138861  0.39910911     1.03800
O516        O  0.24231629  0.62903068  0.41955134    -1.13400
O517        O  0.32119191  0.67412302  0.41353872    -0.75800
O518        O  0.28413765  0.67264774  0.38017696    -0.79300
O519        O  0.16153263  0.58559980  0.41954150    -0.80000
C520        C  0.31388768  0.68636451  0.39265829     0.95300
O521        O  0.27877474  0.58109170  0.38071951    -0.77900
O522        O  0.28309823  0.67224785  0.45964418    -0.83100
C523        C  0.24732563  0.56750982  0.46624397     0.97900
C524        C  0.24968164  0.68683292  0.46816273     1.03800
O525        O  0.21204427  0.58262760  0.46096772    -0.78800
C526        C  0.30971505  0.56824733  0.39245121     1.02100
Fe527      Fe  0.48679780  0.87900021  0.37105127     1.65800
Fe528      Fe  0.49601077  0.82794813  0.31898230     1.73200
Fe529      Fe  0.49510664  0.93262490  0.31999306     1.54400
O530        O  0.45449017  0.96188677  0.34312420    -0.82500
O531        O  0.04835484  0.84665725  0.30100090    -0.80800
O532        O  0.43427136  0.91464764  0.36904436    -0.85000
O533        O  0.02468871  0.93053597  0.37579159    -0.79900
O534        O  0.44519456  0.91702465  0.29894054    -0.81600
O535        O  0.03542935  0.80096435  0.34346479    -0.84400
C536        C  0.04784142  0.95224411  0.36244548     0.96400
C537        C  0.42997000  0.94950469  0.35921379     1.03800
O538        O  0.49264005  0.87958597  0.33666726    -1.13400
O539        O  0.44474612  0.80275579  0.33531145    -0.75800
O540        O  0.44817606  0.82795125  0.37181798    -0.79300
O541        O  0.04525211  0.95137328  0.34005624    -0.80000
C542        C  0.43305653  0.80339519  0.35667025     0.95300
O543        O  0.03837789  0.84221591  0.37514449    -0.77900
O544        O  0.45619023  0.84954827  0.29262023    -0.83100
C545        C  0.05619935  0.87962713  0.28984943     0.97900
C546        C  0.43705507  0.88333326  0.28837551     1.03800
O547        O  0.03566721  0.91224062  0.29395392    -0.78800
C548        C  0.05036827  0.81093084  0.36345106     1.02100
Fe549      Fe  0.49241997  0.63204436  0.11793260     1.65800
Fe550      Fe  0.04818287  0.62751865  0.06704529     1.73200
Fe551      Fe  0.44231914  0.62947795  0.06463089     1.54400
O552        O  0.41415467  0.58737463  0.08737971    -0.82500
O553        O  0.03310183  0.67543043  0.04449142    -0.80800
O554        O  0.45382732  0.58132157  0.11973908    -0.85000
O555        O  0.44204121  0.67182969  0.11915826    -0.79900
O556        O  0.46076173  0.58030406  0.04364907    -0.81600
O557        O  0.07529504  0.67079328  0.08965629    -0.84400
C558        C  0.41826060  0.68929545  0.10432242     0.96400
C559        C  0.42290363  0.57075773  0.10718124     1.03800
O560        O  0.99420024  0.62980922  0.08313680    -1.13400
O561        O  0.06815855  0.57893526  0.08741493    -0.75800
O562        O  0.04323757  0.59317849  0.12293598    -0.79300
O563        O  0.41770190  0.67919496  0.08272703    -0.80000
C564        C  0.06757093  0.57317118  0.10949849     0.95300
O565        O  0.03049152  0.68300174  0.11890859    -0.77900
O566        O  0.02913041  0.58349254  0.04286252    -0.83100
C567        C  0.99924066  0.68713893  0.03504427     0.97900
C568        C  0.49546940  0.56712724  0.03604068     1.03800
O569        O  0.46412081  0.67160623  0.04012366    -0.78800
C570        C  0.06409680  0.69067447  0.10801906     1.02100
Fe571      Fe  0.24311851  0.88163363  0.13478503     1.65800
Fe572      Fe  0.24759255  0.93264377  0.18746279     1.73200
Fe573      Fe  0.24684586  0.82730459  0.18624912     1.54400
O574        O  0.20484883  0.79889610  0.16342314    -0.82500
O575        O  0.29792356  0.91468835  0.20735005    -0.80800
O576        O  0.19256153  0.84231147  0.13412689    -0.85000
O577        O  0.28442987  0.83300745  0.13095362    -0.79900
O578        O  0.19687997  0.84499426  0.20727886    -0.81600
O579        O  0.28866672  0.96008120  0.16436608    -0.84400
C580        C  0.30326902  0.80771896  0.14441108     0.96400
C581        C  0.18456824  0.80908443  0.14505094     1.03800
O582        O  0.24620657  0.88059429  0.16947496    -1.13400
O583        O  0.19685727  0.95743217  0.16955784    -0.75800
O584        O  0.20145229  0.92969718  0.13367649    -0.79300
O585        O  0.29612608  0.80506214  0.16643611    -0.80000
C586        C  0.18573887  0.95525338  0.14806022     0.95300
O587        O  0.29255645  0.92241627  0.13159933    -0.77900
O588        O  0.20787383  0.91161146  0.21340073    -0.83100
C589        C  0.30793014  0.88053271  0.21674923     0.97900
C590        C  0.18863460  0.87845734  0.21808278     1.03800
O591        O  0.28981692  0.84685259  0.21147924    -0.78800
C592        C  0.30393642  0.95297908  0.14411388     1.02100
C593        C  0.13919237  0.78144379  0.11150575    -0.02700
C594        C  0.15110891  0.78075414  0.13579138     0.07000
C595        C  0.13133470  0.75166967  0.15096992    -0.02800
C596        C  0.10332789  0.72224320  0.14179395    -0.02800
C597        C  0.09213879  0.72299264  0.11770561     0.07100
C598        C  0.10880313  0.75378693  0.10291156    -0.03000
Br599      Br  0.08807124  0.75952051  0.07098787    -0.01500
Br600      Br  0.16519108  0.81792582  0.08875785    -0.01600
Br601      Br  0.08200303  0.67922709  0.16231086    -0.01600
Br602      Br  0.14016574  0.75192102  0.18477738    -0.01600
C603        C  0.37575929  0.78015542  0.13953199    -0.02700
C604        C  0.33330040  0.77890700  0.13349933     0.07000
C605        C  0.31918786  0.75026498  0.11655324    -0.02800
C606        C  0.34700457  0.72159495  0.10648331    -0.02800
C607        C  0.38953971  0.72203193  0.11291865     0.07100
C608        C  0.40399753  0.75256124  0.12880238    -0.03000
Br609      Br  0.46287495  0.75889078  0.13461325    -0.01500
Br610      Br  0.39533583  0.82035320  0.16210133    -0.01600
Br611      Br  0.32561421  0.68066770  0.08481517    -0.01600
Br612      Br  0.26097992  0.74887020  0.10795057    -0.01600
C613        C  0.33000085  0.52568423  0.13864729    -0.02700
C614        C  0.33531903  0.98262240  0.13474335     0.07000
C615        C  0.37085281  0.96865282  0.12217405    -0.02800
C616        C  0.39986290  0.99740312  0.11318967    -0.02800
C617        C  0.39383217  0.53998950  0.11690369     0.07100
C618        C  0.35959233  0.55392019  0.13012739    -0.03000
Br619      Br  0.35398615  0.61215948  0.13711621    -0.01500
Br620      Br  0.28136132  0.54753908  0.15457612    -0.01600
Br621      Br  0.44857724  0.97875557  0.09630342    -0.01600
Br622      Br  0.38153364  0.91030468  0.11817398    -0.01600
C623        C  0.16611937  0.51006743  0.11919913    -0.02700
C624        C  0.15496244  0.98505711  0.13861760     0.09400
C625        C  0.11466018  0.98821569  0.14828170    -0.02800
C626        C  0.08578311  0.01676614  0.13884454    -0.02800
C627        C  0.09737221  0.54281516  0.11979147     0.07100
C628        C  0.13807855  0.53959214  0.11030370    -0.03000
Br629      Br  0.15759388  0.57725430  0.08607709    -0.01500
Br630      Br  0.22027695  0.50429615  0.10450942    -0.01600
Br631      Br  0.02987992  0.01804783  0.15148494    -0.01600
Br632      Br  0.09780875  0.95085808  0.17307486    -0.01600
C633        C  0.14277358  0.84235122  0.24812345    -0.02700
C634        C  0.15538924  0.87933906  0.23679470     0.07000
C635        C  0.13583800  0.91701484  0.24365735    -0.02800
C636        C  0.10544355  0.91749143  0.26172062    -0.02800
C637        C  0.09023087  0.87978531  0.27148111     0.07100
C638        C  0.10812459  0.84209592  0.26336386    -0.03000
Br639      Br  0.08420164  0.78853452  0.27061139    -0.01500
Br640      Br  0.17488694  0.79178109  0.24529105    -0.01600
Br641      Br  0.08624304  0.97120787  0.27262889    -0.01600
Br642      Br  0.14906024  0.96940372  0.22859875    -0.01600
C643        C  0.36723242  0.86042011  0.27405178    -0.02700
C644        C  0.40392073  0.88319595  0.27025540     0.07000
C645        C  0.40917819  0.90524480  0.24900366    -0.02800
C646        C  0.37832590  0.90371401  0.23131421    -0.02800
C647        C  0.34152287  0.88044074  0.23490249     0.07100
C648        C  0.33613657  0.85896814  0.25651445    -0.03000
Br649      Br  0.28522165  0.82948567  0.26313025    -0.01500
Br650      Br  0.35854320  0.83325336  0.30403732    -0.01600
Br651      Br  0.38794321  0.93226621  0.20179193    -0.01600
Br652      Br  0.45933189  0.93687960  0.24395161    -0.01600
C653        C  0.07312425  0.76169291  0.39448178    -0.02700
C654        C  0.08220481  0.78389712  0.37381150     0.07000
C655        C  0.12052581  0.77855880  0.36235373    -0.02800
C656        C  0.14962610  0.74975888  0.37101965    -0.02800
C657        C  0.14024762  0.72552904  0.39140462     0.07100
C658        C  0.10186204  0.73281735  0.40345164    -0.03000
Br659      Br  0.08554050  0.70296493  0.43169278    -0.01500
Br660      Br  0.01943681  0.76882278  0.40956837    -0.01600
Br661      Br  0.20202511  0.74540454  0.35429540    -0.01600
Br662      Br  0.13305682  0.81139203  0.33466220    -0.01600
C663        C  0.38150266  0.70242144  0.37328613    -0.02700
C664        C  0.34290625  0.71640654  0.38209982     0.07000
C665        C  0.33329173  0.75890727  0.38169734    -0.02800
C666        C  0.36238473  0.78743235  0.37276380    -0.02800
C667        C  0.40137638  0.77351678  0.36451673     0.07100
C668        C  0.41086838  0.73094207  0.36473894    -0.03000
Br669      Br  0.46509931  0.71187082  0.35468707    -0.01500
Br670      Br  0.39424171  0.64404976  0.37299768    -0.01600
Br671      Br  0.34863198  0.84551339  0.37144319    -0.01600
Br672      Br  0.28088905  0.77814638  0.39404429    -0.01600
C673        C  0.35231204  0.50477091  0.39867573    -0.02700
C674        C  0.33552665  0.53426411  0.38295363     0.07000
C675        C  0.34653189  0.53288351  0.35878507    -0.02800
C676        C  0.37512969  0.50304618  0.35076178    -0.02800
C677        C  0.39591841  0.97711713  0.36713406     0.07100
C678        C  0.38442890  0.97842429  0.39125474    -0.03000
Br679      Br  0.41488051  0.94799823  0.41513533    -0.01500
Br680      Br  0.32990895  0.99861825  0.43023027    -0.01600
Br681      Br  0.38436962  0.49742646  0.31713626    -0.01600
Br682      Br  0.32497449  0.57300050  0.33650333    -0.01600
C683        C  0.14938167  0.50357809  0.37977339    -0.02700
C684        C  0.13465417  0.54001217  0.39072146     0.07000
C685        C  0.09141664  0.54603091  0.39367597    -0.02800
C686        C  0.06319891  0.51593942  0.38569692    -0.02800
C687        C  0.07783448  0.98087265  0.37344380     0.07100
C688        C  0.12096340  0.97434185  0.37091104    -0.03000
Br689      Br  0.14098437  0.92440369  0.35617675    -0.01500
Br690      Br  0.20846745  0.99292149  0.37755727    -0.01600
Br691      Br  0.00431131  0.52336537  0.39114018    -0.01600
Br692      Br  0.07027328  0.59712543  0.40666451    -0.01600
C693        C  0.27372869  0.50698033  0.52168171    -0.02700
C694        C  0.25186176  0.96985166  0.51788663     0.07000
C695        C  0.22790458  0.96499877  0.49717217    -0.02800
C696        C  0.22720764  0.49645772  0.47992461    -0.02800
C697        C  0.24918469  0.53357077  0.48373097     0.07100
C698        C  0.27211558  0.53886988  0.50474989    -0.03000
Br699      Br  0.29912184  0.59099884  0.51108468    -0.01500
Br700      Br  0.30341663  0.51543628  0.55088866    -0.01600
Br701      Br  0.19765513  0.48789350  0.45063263    -0.01600
Br702      Br  0.19606345  0.91513814  0.49233906    -0.01600
C703        C  0.27775965  0.78699733  0.49926632    -0.02700
C704        C  0.25378667  0.78390802  0.52001962     0.07000
C705        C  0.22918369  0.74863481  0.52407068    -0.02800
C706        C  0.22763506  0.71695091  0.50708342    -0.02800
C707        C  0.25197623  0.71974562  0.48628907     0.07100
C708        C  0.27766131  0.75463358  0.48271206    -0.03000
Br709      Br  0.31166617  0.75956515  0.45475441    -0.01500
Br710      Br  0.30865076  0.83696572  0.49272896    -0.01600
Br711      Br  0.19320900  0.66910972  0.51307125    -0.01600
Br712      Br  0.19917521  0.74280789  0.55348038    -0.01600
C713        C  0.10659994  0.80042672  0.61636902    -0.02700
C714        C  0.14979887  0.79368377  0.61911081     0.07000
C715        C  0.16397647  0.75829600  0.63129678    -0.02800
C716        C  0.13518400  0.72949073  0.64027572    -0.02800
C717        C  0.09214676  0.73586326  0.63723475     0.07100
C718        C  0.07788077  0.77161746  0.62545053    -0.03000
Br719      Br  0.01886130  0.78177755  0.62245332    -0.01500
Br720      Br  0.08657693  0.85005313  0.60103163    -0.01600
Br721      Br  0.15469253  0.68040595  0.65598889    -0.01600
Br722      Br  0.22288370  0.74807597  0.63468772    -0.01600
C723        C  0.35551212  0.77220136  0.64106949    -0.02700
C724        C  0.35172504  0.78096743  0.61656790     0.07000
C725        C  0.37426865  0.75627992  0.60032274    -0.02800
C726        C  0.40463771  0.72805993  0.60838067    -0.02800
C727        C  0.40995433  0.72103298  0.63287042     0.07100
C728        C  0.38308097  0.74115534  0.64894392    -0.03000
Br729      Br  0.38208284  0.72469109  0.68182812    -0.01500
Br730      Br  0.32510930  0.80319816  0.66471084    -0.01600
Br731      Br  0.44020089  0.70138452  0.58539280    -0.01600
Br732      Br  0.36184155  0.75837329  0.56690160    -0.01600
C733        C  0.40626410  0.95818121  0.61290883    -0.02700
C734        C  0.36313235  0.96613026  0.61437388     0.07000
C735        C  0.34887809  0.50372969  0.62407630    -0.02800
C736        C  0.37755929  0.53244339  0.63324206    -0.02800
C737        C  0.42054011  0.52382850  0.63246631     0.07100
C738        C  0.43489424  0.98693078  0.62200090    -0.03000
Br739      Br  0.49383470  0.97515201  0.62083424    -0.01500
Br740      Br  0.42621260  0.90738876  0.59894853    -0.01600
Br741      Br  0.35830423  0.58424100  0.64618547    -0.01600
Br742      Br  0.29028985  0.51687554  0.62348068    -0.01600
C743        C  0.12016871  0.53569474  0.61175577    -0.02700
C744        C  0.10278874  0.53181467  0.63479118     0.07000
C745        C  0.11710928  0.49927378  0.64975467    -0.02800
C746        C  0.14585749  0.97005714  0.64129610    -0.02800
C747        C  0.16170423  0.97349753  0.61824393     0.07100
C748        C  0.14980305  0.00679772  0.60376183    -0.03000
Br749      Br  0.17478554  0.01292088  0.57285044    -0.01500
Br750      Br  0.10275754  0.57838914  0.58986736    -0.01600
Br751      Br  0.16132986  0.92328820  0.66089935    -0.01600
Br752      Br  0.09868535  0.49314566  0.68222043    -0.01600
C753        C  0.16981318  0.61136839  0.74467288    -0.02700
C754        C  0.15996021  0.62320755  0.76799129     0.07000
C755        C  0.11893034  0.63551482  0.77343800    -0.02800
C756        C  0.08760314  0.63390396  0.75607109    -0.02800
C757        C  0.09735412  0.62205202  0.73273462     0.07100
C758        C  0.13863535  0.61049294  0.72715209    -0.03000
Br759      Br  0.15322860  0.59477671  0.69537397    -0.01500
Br760      Br  0.22694312  0.60024939  0.73616608    -0.01600
Br761      Br  0.03063172  0.64498020  0.76483125    -0.01600
Br762      Br  0.10534599  0.65510602  0.80460945    -0.01600
C763        C  0.37247273  0.65600140  0.76427384    -0.02700
C764        C  0.34661636  0.62076088  0.76635517     0.07000
C765        C  0.35362176  0.58666395  0.75116478    -0.02800
C766        C  0.38503743  0.58846612  0.73375196    -0.02800
C767        C  0.41077332  0.62379929  0.73174409     0.07100
C768        C  0.40425881  0.65748491  0.74718970    -0.03000
Br769      Br  0.44000609  0.70559312  0.74610472    -0.01500
Br770      Br  0.36696499  0.70204160  0.78576261    -0.01600
Br771      Br  0.39047810  0.54310374  0.71169306    -0.01600
Br772      Br  0.31969232  0.53743728  0.75328272    -0.01600
C773        C  0.46087052  0.50730718  0.01385537    -0.02700
C774        C  0.49678008  0.53192411  0.01834727     0.07000
C775        C  0.03377081  0.52276155  0.00532538    -0.02800
C776        C  0.03412334  0.99131514  0.98796978    -0.02800
C777        C  0.49802780  0.96766340  0.98321315     0.07100
C778        C  0.46128727  0.97638113  0.99617463    -0.03000
Br779      Br  0.41066593  0.94540311  0.99054967    -0.01500
Br780      Br  0.41061857  0.51252930  0.03266337    -0.01600
Br781      Br  0.08451713  0.98308172  0.96967536    -0.01600
Br782      Br  0.08565459  0.55217644  0.01040122    -0.01600
C783        C  0.48409215  0.75934316  0.02188248    -0.02700
C784        C  0.00068771  0.71992821  0.01701082     0.07000
C785        C  0.01815295  0.71156475  0.99472570    -0.02800
C786        C  0.01852261  0.74236993  0.97716724    -0.02800
C787        C  0.00176059  0.78193114  0.98190277     0.07100
C788        C  0.48510660  0.79047769  0.00448427    -0.03000
Br789      Br  0.46658787  0.84563349  0.01233056    -0.01500
Br790      Br  0.46133762  0.77099412  0.05274230    -0.01600
Br791      Br  0.04094980  0.72951916  0.94646373    -0.01600
Br792      Br  0.04045727  0.65730805  0.98805756    -0.01600
C793        C  0.17937761  0.76838764  0.87147419    -0.02700
C794        C  0.16703737  0.72720569  0.86732406     0.07000
C795        C  0.12562861  0.71531161  0.87200984    -0.02800
C796        C  0.09630735  0.74497928  0.87960507    -0.02800
C797        C  0.10901612  0.78590368  0.88440174     0.07100
C798        C  0.15065706  0.79746233  0.88017202    -0.03000
Br799      Br  0.16808709  0.85399011  0.88464980    -0.01500
Br800      Br  0.23634883  0.78489242  0.86635802    -0.01600
Br801      Br  0.03869000  0.72944130  0.88290427    -0.01600
Br802      Br  0.10884655  0.65848891  0.86807636    -0.01600
C803        C  0.37576162  0.71758382  0.87914581    -0.02700
C804        C  0.34915680  0.72888654  0.86025497     0.07000
C805        C  0.35284047  0.76897795  0.85033038    -0.02800
C806        C  0.38031133  0.79801483  0.86036324    -0.02800
C807        C  0.40484551  0.78741325  0.88017434     0.07100
C808        C  0.40260288  0.74694181  0.88940535    -0.03000
Br809      Br  0.43668773  0.73116625  0.91601669    -0.01500
Br810      Br  0.37833708  0.66090610  0.88994238    -0.01600
Br811      Br  0.38146913  0.85369467  0.84800456    -0.01600
Br812      Br  0.31969169  0.78575333  0.82342600    -0.01600
C813        C  0.37908918  0.00968159  0.84956614    -0.02700
C814        C  0.35412542  0.53153820  0.86598456     0.07000
C815        C  0.36274449  0.52734852  0.89040344    -0.02800
C816        C  0.39324444  0.49911520  0.89814170    -0.02800
C817        C  0.41377953  0.97301009  0.88187378     0.07100
C818        C  0.40825927  0.98008509  0.85741133    -0.03000
Br819      Br  0.43950718  0.94917669  0.83413935    -0.01500
Br820      Br  0.37525912  0.02145739  0.81613912    -0.01600
Br821      Br  0.40898379  0.49865730  0.93106464    -0.01600
Br822      Br  0.33214635  0.55825796  0.91396685    -0.01600
C823        C  0.12863491  0.51952937  0.85959746    -0.02700
C824        C  0.16865072  0.52353773  0.86956520     0.07000
C825        C  0.17890635  0.50039055  0.88997967    -0.02800
C826        C  0.15005791  0.97239446  0.89975919    -0.02800
C827        C  0.11026451  0.96767161  0.88938138     0.07100
C828        C  0.09918546  0.99295274  0.86995266    -0.03000
Br829      Br  0.04257615  0.99414196  0.85846593    -0.01500
Br830      Br  0.11344341  0.55060838  0.83173470    -0.01600
Br831      Br  0.16674083  0.93957418  0.92679413    -0.01600
Br832      Br  0.23378764  0.50413369  0.90371054    -0.01600
Fe833      Fe  0.50941049  0.37622093  0.88244712     1.65800
Fe834      Fe  0.95111982  0.37574687  0.93236787     1.73200
Fe835      Fe  0.55623866  0.37470188  0.93600070     1.54400
O836        O  0.58793851  0.33625673  0.91243173    -0.82500
O837        O  0.96706691  0.42643135  0.95271340    -0.80800
O838        O  0.54646987  0.32439631  0.88163808    -0.85000
O839        O  0.56141381  0.41429017  0.88211377    -0.79900
O840        O  0.53795756  0.32293003  0.95417649    -0.81600
O841        O  0.92546016  0.41703854  0.90821153    -0.84400
C842        C  0.58136124  0.43471447  0.89754903     0.96400
C843        C  0.57913197  0.31700243  0.89346789     1.03800
O844        O  0.00549767  0.37500885  0.91694096    -1.13400
O845        O  0.93004027  0.32585221  0.91298710    -0.75800
O846        O  0.95821196  0.33785931  0.87768691    -0.79300
O847        O  0.57794924  0.42719010  0.91943861    -0.80000
C848        C  0.93282594  0.31868079  0.89098771     0.95300
O849        O  0.97314505  0.42872376  0.88056940    -0.77900
O850        O  0.96986351  0.33437460  0.95865241    -0.83100
C851        C  0.99909509  0.43364064  0.96509428     0.97900
C852        C  0.00319232  0.31482212  0.96371364     1.03800
O853        O  0.53221030  0.41255392  0.96252934    -0.78800
C854        C  0.93912770  0.43764246  0.89070468     1.02100
Fe855      Fe  0.75779929  0.12757787  0.86726489     1.65800
Fe856      Fe  0.75373197  0.17585390  0.81423361     1.73200
Fe857      Fe  0.75520202  0.07114839  0.81669557     1.54400
O858        O  0.79730713  0.04460653  0.84014619    -0.82500
O859        O  0.70111578  0.15806904  0.79626248    -0.80800
O860        O  0.81050662  0.09117746  0.86792486    -0.85000
O861        O  0.71922444  0.07672449  0.87194515    -0.79900
O862        O  0.80535058  0.08750913  0.79587434    -0.81600
O863        O  0.71566087  0.20625211  0.83835204    -0.84400
C864        C  0.69971817  0.05168138  0.85868851     0.96400
C865        C  0.81871925  0.05745102  0.85752072     1.03800
O866        O  0.75503352  0.12477753  0.83273978    -1.13400
O867        O  0.80683523  0.19766874  0.83051722    -0.75800
O868        O  0.79650864  0.17900146  0.86775523    -0.79300
O869        O  0.70610013  0.04958726  0.83658045    -0.80000
C870        C  0.81584449  0.19997560  0.85227068     0.95300
O871        O  0.70580557  0.16481063  0.86934091    -0.77900
O872        O  0.79133535  0.15302599  0.78737356    -0.83100
C873        C  0.69296961  0.12392887  0.78629551     0.97900
C874        C  0.81239877  0.12022082  0.78419620     1.03800
O875        O  0.71276845  0.09064632  0.79090791    -0.78800
C876        C  0.69758884  0.19735346  0.85769528     1.02100
Fe877      Fe  0.75742997  0.37887700  0.61862347     1.65800
Fe878      Fe  0.70198877  0.37877971  0.56743748     1.73200
Fe879      Fe  0.80833250  0.37734397  0.56607973     1.54400
O880        O  0.83291325  0.42674525  0.58391653    -0.82500
O881        O  0.72061337  0.33561964  0.54263691    -0.80800
O882        O  0.80954555  0.41702002  0.62049249    -0.85000
O883        O  0.79316695  0.32610862  0.61943037    -0.79900
O884        O  0.78734589  0.41923004  0.54071643    -0.81600
O885        O  0.67843966  0.33080525  0.58710895    -0.84400
C886        C  0.82543086  0.31609624  0.60790015     0.96400
C887        C  0.83320805  0.43501379  0.60573600     1.03800
O888        O  0.75585155  0.37846368  0.58396563    -1.13400
O889        O  0.67662513  0.42175955  0.59033883    -0.75800
O890        O  0.72130289  0.43110911  0.62009221    -0.79300
O891        O  0.83644400  0.33554071  0.58933835    -0.80000
C892        C  0.68847441  0.44050149  0.60886275     0.95300
O893        O  0.70543256  0.34135516  0.62273722    -0.77900
O894        O  0.71892591  0.42688756  0.54578965    -0.83100
C895        C  0.75458395  0.31769867  0.53740728     0.97900
C896        C  0.75284762  0.43668834  0.53588944     1.03800
O897        O  0.78936681  0.32784450  0.54617329    -0.78800
C898        C  0.67983623  0.32354595  0.60906263     1.02100
Fe899      Fe  0.50850354  0.12811097  0.63279050     1.65800
Fe900      Fe  0.50550679  0.07390574  0.68339347     1.73200
Fe901      Fe  0.50366096  0.17815076  0.68477344     1.54400
O902        O  0.55520737  0.20234810  0.66799058    -0.82500
O903        O  0.96697417  0.09328940  0.71064120    -0.80800
O904        O  0.54342858  0.18227157  0.63102114    -0.85000
O905        O  0.95388868  0.16149959  0.63095305    -0.79900
O906        O  0.54361689  0.15566793  0.71106477    -0.81600
O907        O  0.95364246  0.05533595  0.66500200    -0.84400
C908        C  0.94441109  0.19447040  0.64190864     0.96400
C909        C  0.56200133  0.20492383  0.64597850     1.03800
O910        O  0.50595565  0.12697230  0.66706810    -1.13400
O911        O  0.54356561  0.04619342  0.65847659    -0.75800
O912        O  0.56342858  0.09501661  0.63365258    -0.79300
O913        O  0.96394567  0.20619901  0.66032682    -0.80000
C914        C  0.56837532  0.05957644  0.64280574     0.95300
O915        O  0.97352491  0.07414292  0.62887130    -0.77900
O916        O  0.55748384  0.08948819  0.70278951    -0.83100
C917        C  0.94486078  0.12530551  0.71394077     0.97900
C918        C  0.56442064  0.12243964  0.71432808     1.03800
O919        O  0.95140268  0.15863623  0.70275309    -0.78800
C920        C  0.95063467  0.05309474  0.64271603     1.02100
Fe921      Fe  0.73740828  0.12908721  0.38464169     1.65800
Fe922      Fe  0.79772827  0.12789971  0.43477203     1.73200
Fe923      Fe  0.69166882  0.12993804  0.43927078     1.54400
O924        O  0.66596157  0.17750710  0.41996365    -0.82500
O925        O  0.78122111  0.08092175  0.45766881    -0.80800
O926        O  0.69421393  0.17619263  0.38436744    -0.85000
O927        O  0.69079295  0.08552824  0.38396570    -0.79900
O928        O  0.71412794  0.17437698  0.46179375    -0.81600
O929        O  0.82019939  0.08374054  0.41210044    -0.84400
C930        C  0.66420595  0.07217031  0.39859190     0.96400
C931        C  0.66877870  0.19139184  0.39911171     1.03800
O932        O  0.74231802  0.12903071  0.41955266    -1.13400
O933        O  0.82119466  0.17412239  0.41354095    -0.75800
O934        O  0.78414051  0.17264889  0.38017918    -0.79300
O935        O  0.66153245  0.08560202  0.41954149    -0.80000
C936        C  0.81389063  0.18636477  0.39266068     0.95300
O937        O  0.77877576  0.08109305  0.38072021    -0.77900
O938        O  0.78310026  0.17224602  0.45964611    -0.83100
C939        C  0.74732636  0.06750767  0.46624419     0.97900
C940        C  0.74968360  0.18683054  0.46816489     1.03800
O941        O  0.71204499  0.08262524  0.46096771    -0.78800
C942        C  0.80971580  0.06824760  0.39245183     1.02100
Fe943      Fe  0.98679903  0.37899881  0.37105106     1.65800
Fe944      Fe  0.99601066  0.32794770  0.31898202     1.73200
Fe945      Fe  0.99510558  0.43262374  0.31999319     1.54400
O946        O  0.95449182  0.46188622  0.34312591    -0.82500
O947        O  0.54835620  0.34665716  0.30100083    -0.80800
O948        O  0.93427229  0.41464592  0.36904509    -0.85000
O949        O  0.52468922  0.43053493  0.37579310    -0.79900
O950        O  0.94519132  0.41702409  0.29894233    -0.81600
O951        O  0.53543040  0.30096397  0.34346502    -0.84400
C952        C  0.54784192  0.45224383  0.36244736     0.96400
C953        C  0.92997134  0.44950362  0.35921525     1.03800
O954        O  0.99263973  0.37958488  0.33666715    -1.13400
O955        O  0.94474548  0.30275587  0.33531104    -0.75800
O956        O  0.94817787  0.32794989  0.37181792    -0.79300
O957        O  0.54525306  0.45137378  0.34005811    -0.80000
C958        C  0.93305720  0.30339469  0.35667013     0.95300
O959        O  0.53837685  0.34221424  0.37514533    -0.77900
O960        O  0.95619088  0.34954889  0.29261978    -0.83100
C961        C  0.55620246  0.37962781  0.28985023     0.97900
C962        C  0.93705380  0.38333329  0.28837618     1.03800
O963        O  0.53567197  0.41224164  0.29395565    -0.78800
C964        C  0.55036813  0.31092962  0.36345179     1.02100
Fe965      Fe  0.99241973  0.13204437  0.11793221     1.65800
Fe966      Fe  0.54818271  0.12751933  0.06704620     1.73200
Fe967      Fe  0.94231899  0.12947784  0.06463043     1.54400
O968        O  0.91415426  0.08737480  0.08737929    -0.82500
O969        O  0.53310144  0.17543147  0.04449258    -0.80800
O970        O  0.95382678  0.08132171  0.11973867    -0.85000
O971        O  0.94204120  0.17182989  0.11915771    -0.79900
O972        O  0.96076161  0.08030381  0.04364881    -0.81600
O973        O  0.57529515  0.17079347  0.08965741    -0.84400
C974        C  0.91826078  0.18929568  0.10432178     0.96400
C975        C  0.92290310  0.07075791  0.10718083     1.03800
O976        O  0.49420025  0.12980970  0.08313789    -1.13400
O977        O  0.56815836  0.07893557  0.08741557    -0.75800
O978        O  0.54323825  0.09317905  0.12293678    -0.79300
O979        O  0.91770204  0.17919506  0.08272642    -0.80000
C980        C  0.56757118  0.07317151  0.10949915     0.95300
O981        O  0.53049153  0.18300233  0.11890955    -0.77900
O982        O  0.52913008  0.08349366  0.04286318    -0.83100
C983        C  0.49924018  0.18713951  0.03504532     0.97900
C984        C  0.99546944  0.06712714  0.03604044     1.03800
O985        O  0.96412047  0.17160578  0.04012301    -0.78800
C986        C  0.56409693  0.19067488  0.10802008     1.02100
Fe987      Fe  0.74311871  0.38163347  0.13478478     1.65800
Fe988      Fe  0.74759380  0.43264345  0.18746241     1.73200
Fe989      Fe  0.74684708  0.32730447  0.18624876     1.54400
O990        O  0.70485053  0.29889559  0.16342265    -0.82500
O991        O  0.79792589  0.41468826  0.20734887    -0.80800
O992        O  0.69256128  0.34231214  0.13412715    -0.85000
O993        O  0.78442946  0.33300688  0.13095314    -0.79900
O994        O  0.69688093  0.34499392  0.20727843    -0.81600
O995        O  0.78866669  0.46008129  0.16436512    -0.84400
C996        C  0.80326954  0.30771904  0.14441057     0.96400
C997        C  0.68456903  0.30908446  0.14505099     1.03800
O998        O  0.74620748  0.38059410  0.16947463    -1.13400
O999        O  0.69685729  0.45743124  0.16955812    -0.75800
O1000       O  0.70145299  0.42969735  0.13367652    -0.79300
O1001       O  0.79612761  0.30506277  0.16643573    -0.80000
C1002       C  0.68573911  0.45525296  0.14806042     0.95300
O1003       O  0.79255704  0.42241546  0.13159875    -0.77900
O1004       O  0.70787669  0.41161070  0.21340103    -0.83100
C1005       C  0.80793152  0.38053280  0.21674861     0.97900
C1006       C  0.68863674  0.37845670  0.21808281     1.03800
O1007       O  0.78981761  0.34685286  0.21147902    -0.78800
C1008       C  0.80393661  0.45297877  0.14411302     1.02100
C1009       C  0.63919525  0.28144196  0.11150569    -0.02700
C1010       C  0.65110962  0.28075457  0.13579155     0.07000
C1011       C  0.63133304  0.25167280  0.15097076    -0.02800
C1012       C  0.60332575  0.22224643  0.14179517    -0.02800
C1013       C  0.59213884  0.22299336  0.11770644     0.07100
C1014       C  0.60880562  0.25378545  0.10291169    -0.03000
Br1015     Br  0.58807652  0.25951687  0.07098730    -0.01500
Br1016     Br  0.66519797  0.31792026  0.08875730    -0.01600
Br1017     Br  0.58199728  0.17923411  0.16231344    -0.01600
Br1018     Br  0.64016176  0.25192845  0.18477840    -0.01600
C1019       C  0.87575983  0.28015582  0.13953123    -0.02700
C1020       C  0.83330091  0.27890731  0.13349865     0.07000
C1021       C  0.81918834  0.25026544  0.11655247    -0.02800
C1022       C  0.84700503  0.22159553  0.10648244    -0.02800
C1023       C  0.88954010  0.22203233  0.11291790     0.07100
C1024       C  0.90399800  0.25256153  0.12880166    -0.03000
Br1025     Br  0.96287541  0.25889060  0.13461277    -0.01500
Br1026     Br  0.89533659  0.32035401  0.16210026    -0.01600
Br1027     Br  0.82561469  0.18066868  0.08481404    -0.01600
Br1028     Br  0.76098044  0.24887054  0.10794983    -0.01600
C1029       C  0.83000018  0.02568399  0.13864670    -0.02700
C1030       C  0.83531906  0.48262209  0.13474229     0.07000
C1031       C  0.87085271  0.46865248  0.12217288    -0.02800
C1032       C  0.89986265  0.49740277  0.11318834    -0.02800
C1033       C  0.89383159  0.03998959  0.11690321     0.07100
C1034       C  0.85959158  0.05392011  0.13012682    -0.03000
Br1035     Br  0.85398503  0.11215942  0.13711550    -0.01500
Br1036     Br  0.78136076  0.04753865  0.15457572    -0.01600
Br1037     Br  0.94857700  0.47875520  0.09630209    -0.01600
Br1038     Br  0.88153376  0.41030435  0.11817292    -0.01600
C1039       C  0.66611906  0.01006642  0.11919933    -0.02700
C1040       C  0.65496253  0.48505663  0.13861782     0.09400
C1041       C  0.61466004  0.48821478  0.14828169    -0.02800
C1042       C  0.58578306  0.51676546  0.13884465    -0.02800
C1043       C  0.59737231  0.04281509  0.11979194     0.07100
C1044       C  0.63807830  0.03959106  0.11030375    -0.03000
Br1045     Br  0.65759326  0.07725139  0.08607611    -0.01500
Br1046     Br  0.72027649  0.00429459  0.10450943    -0.01600
Br1047     Br  0.52987975  0.51804707  0.15148487    -0.01600
Br1048     Br  0.59780785  0.45085568  0.17307393    -0.01600
C1049       C  0.64277862  0.34235152  0.24812510    -0.02700
C1050       C  0.65539198  0.37933886  0.23679499     0.07000
C1051       C  0.63583908  0.41701425  0.24365644    -0.02800
C1052       C  0.60544444  0.41749140  0.26171963    -0.02800
C1053       C  0.59023420  0.37978536  0.27148186     0.07100
C1054       C  0.60813019  0.34209612  0.26336595    -0.03000
Br1055     Br  0.58421143  0.28853370  0.27061576    -0.01500
Br1056     Br  0.67489458  0.29178288  0.24529353    -0.01600
Br1057     Br  0.58623943  0.47120830  0.27262458    -0.01600
Br1058     Br  0.64905944  0.46940206  0.22859603    -0.01600
C1059       C  0.86723139  0.36042083  0.27405199    -0.02700
C1060       C  0.90392007  0.38319608  0.27025582     0.07000
C1061       C  0.90917880  0.40524411  0.24900393    -0.02800
C1062       C  0.87832726  0.40371321  0.23131409    -0.02800
C1063       C  0.84152366  0.38044078  0.23490219     0.07100
C1064       C  0.83613616  0.35896896  0.25651433    -0.03000
Br1065     Br  0.78522048  0.32948775  0.26312995    -0.01500
Br1066     Br  0.85854115  0.33325440  0.30403753    -0.01600
Br1067     Br  0.88794641  0.43226397  0.20179156    -0.01600
Br1068     Br  0.95933320  0.43687803  0.24395236    -0.01600
C1069       C  0.57312848  0.26169757  0.39448514    -0.02700
C1070       C  0.58220549  0.28389652  0.37381242     0.07000
C1071       C  0.62052533  0.27855625  0.36235364    -0.02800
C1072       C  0.64962734  0.24975903  0.37102064    -0.02800
C1073       C  0.64025174  0.22553330  0.39140767     0.07100
C1074       C  0.60186860  0.23282555  0.40345651    -0.03000
Br1075     Br  0.58555468  0.20298568  0.43170355    -0.01500
Br1076     Br  0.51944243  0.26882873  0.40957310    -0.01600
Br1077     Br  0.70202556  0.24540403  0.35429551    -0.01600
Br1078     Br  0.63305281  0.31138338  0.33465924    -0.01600
C1079       C  0.88150577  0.20242163  0.37328884    -0.02700
C1080       C  0.84290933  0.21640676  0.38210247     0.07000
C1081       C  0.83329407  0.25890732  0.38169919    -0.02800
C1082       C  0.86238636  0.28743221  0.37276476    -0.02800
C1083       C  0.90137757  0.27351648  0.36451715     0.07100
C1084       C  0.91087044  0.23094203  0.36474034    -0.03000
Br1085     Br  0.96510115  0.21187110  0.35468789    -0.01500
Br1086     Br  0.89424636  0.14405026  0.37300228    -0.01600
Br1087     Br  0.84863353  0.34551326  0.37144400    -0.01600
Br1088     Br  0.78089143  0.27814643  0.39404628    -0.01600
C1089       C  0.85231015  0.00476927  0.39867559    -0.02700
C1090       C  0.83552668  0.03426417  0.38295389     0.07000
C1091       C  0.84653315  0.03288487  0.35878552    -0.02800
C1092       C  0.87513026  0.00304706  0.35076204    -0.02800
C1093       C  0.89591985  0.47711601  0.36713596     0.07100
C1094       C  0.88442923  0.47842187  0.39125652    -0.03000
Br1095     Br  0.91487803  0.44799223  0.41513678    -0.01500
Br1096     Br  0.82990743  0.49861452  0.43023153    -0.01600
Br1097     Br  0.88437067  0.99742841  0.31713650    -0.01600
Br1098     Br  0.82497841  0.07300422  0.33650438    -0.01600
C1099       C  0.64937908  0.00358057  0.37977537    -0.02700
C1100       C  0.63465255  0.04001777  0.39072036     0.07000
C1101       C  0.59141502  0.04604093  0.39367178    -0.02800
C1102       C  0.56319622  0.01594908  0.38569402    -0.02800
C1103       C  0.57783494  0.48087221  0.37344588     0.07100
C1104       C  0.62096380  0.47434070  0.37091346    -0.03000
Br1105     Br  0.64098420  0.42440090  0.35618062    -0.01500
Br1106     Br  0.70846801  0.49292083  0.37755836    -0.01600
Br1107     Br  0.50430842  0.02338056  0.39113370    -0.01600
Br1108     Br  0.57027456  0.09714229  0.40665355    -0.01600
C1109       C  0.77372827  0.00697876  0.52168210    -0.02700
C1110       C  0.75186090  0.46984995  0.51788739     0.07000
C1111       C  0.72790424  0.46499701  0.49717276    -0.02800
C1112       C  0.72720878  0.99645535  0.47992450    -0.02800
C1113       C  0.74918536  0.03356858  0.48373106     0.07100
C1114       C  0.77211552  0.03886809  0.50475021    -0.03000
Br1115     Br  0.79912123  0.09099723  0.51108528    -0.01500
Br1116     Br  0.80341469  0.01543521  0.55088952    -0.01600
Br1117     Br  0.69765783  0.98789044  0.45063210    -0.01600
Br1118     Br  0.69606396  0.41513599  0.49233915    -0.01600
C1119       C  0.77775975  0.28699570  0.49926806    -0.02700
C1120       C  0.75378643  0.28390653  0.52002118     0.07000
C1121       C  0.72918343  0.24863339  0.52407229    -0.02800
C1122       C  0.72763500  0.21694940  0.50708508    -0.02800
C1123       C  0.75197770  0.21974328  0.48629123     0.07100
C1124       C  0.77766285  0.25463124  0.48271428    -0.03000
Br1125     Br  0.81166944  0.25956227  0.45475726    -0.01500
Br1126     Br  0.80864867  0.33696521  0.49273008    -0.01600
Br1127     Br  0.69320599  0.16911002  0.51307216    -0.01600
Br1128     Br  0.69917452  0.24280687  0.55348189    -0.01600
C1129       C  0.60659933  0.30042603  0.61636897    -0.02700
C1130       C  0.64979821  0.29368345  0.61911138     0.07000
C1131       C  0.66397573  0.25829604  0.63129770    -0.02800
C1132       C  0.63518321  0.22949117  0.64027687    -0.02800
C1133       C  0.59214609  0.23586349  0.63723545     0.07100
C1134       C  0.57788012  0.27161701  0.62545059    -0.03000
Br1135     Br  0.51886063  0.28177653  0.62245264    -0.01500
Br1136     Br  0.58657633  0.35005123  0.60103029    -0.01600
Br1137     Br  0.65469147  0.18040714  0.65599095    -0.01600
Br1138     Br  0.72288290  0.24807548  0.63468835    -0.01600
C1139       C  0.85551182  0.27220032  0.64107001    -0.02700
C1140       C  0.85172461  0.28096672  0.61656847     0.07000
C1141       C  0.87426843  0.25627970  0.60032317    -0.02800
C1142       C  0.90463793  0.22806002  0.60838092    -0.02800
C1143       C  0.90995444  0.22103256  0.63287062     0.07100
C1144       C  0.88308081  0.24115428  0.64894423    -0.03000
Br1145     Br  0.88208255  0.22468915  0.68182827    -0.01500
Br1146     Br  0.82510917  0.30319686  0.66471150    -0.01600
Br1147     Br  0.94020199  0.20138599  0.58539297    -0.01600
Br1148     Br  0.86184108  0.25837321  0.56690206    -0.01600
C1149       C  0.90626326  0.45817930  0.61291063    -0.02700
C1150       C  0.86313166  0.46612958  0.61437451     0.07000
C1151       C  0.84887819  0.00372978  0.62407615    -0.02800
C1152       C  0.87755947  0.03244336  0.63324196    -0.02800
C1153       C  0.92054026  0.02382823  0.63246636     0.07100
C1154       C  0.93489355  0.48692893  0.62200250    -0.03000
Br1155     Br  0.99383376  0.47514869  0.62083722    -0.01500
Br1156     Br  0.92621119  0.40738511  0.59895215    -0.01600
Br1157     Br  0.85830452  0.08424095  0.64618543    -0.01600
Br1158     Br  0.79029012  0.01687629  0.62347984    -0.01600
C1159       C  0.62016886  0.03569552  0.61175571    -0.02700
C1160       C  0.60278830  0.03181499  0.63479101     0.07000
C1161       C  0.61710816  0.99927356  0.64975429    -0.02800
C1162       C  0.64585704  0.47005707  0.64129643    -0.02800
C1163       C  0.66170394  0.47349729  0.61824430     0.07100
C1164       C  0.64980245  0.50679711  0.60376199    -0.03000
Br1165     Br  0.67478486  0.51291991  0.57285055    -0.01500
Br1166     Br  0.60275787  0.07839005  0.58986735    -0.01600
Br1167     Br  0.66132970  0.42328849  0.66089990    -0.01600
Br1168     Br  0.59868192  0.99314326  0.68221951    -0.01600
C1169       C  0.66981287  0.11136694  0.74467300    -0.02700
C1170       C  0.65996016  0.12320643  0.76799139     0.07000
C1171       C  0.61893043  0.13551401  0.77343818    -0.02800
C1172       C  0.58760313  0.13390346  0.75607132    -0.02800
C1173       C  0.59735385  0.12205138  0.73273482     0.07100
C1174       C  0.63863491  0.11049168  0.72715226    -0.03000
Br1175     Br  0.65322780  0.09477477  0.69537419    -0.01500
Br1176     Br  0.72694262  0.10024706  0.73616614    -0.01600
Br1177     Br  0.53063191  0.14498026  0.76483164    -0.01600
Br1178     Br  0.60534641  0.15510498  0.80460975    -0.01600
C1179       C  0.87247285  0.15600053  0.76427381    -0.02700
C1180       C  0.84661662  0.12075990  0.76635514     0.07000
C1181       C  0.85362225  0.08666299  0.75116475    -0.02800
C1182       C  0.88503772  0.08846548  0.73375181    -0.02800
C1183       C  0.91077360  0.12379866  0.73174403     0.07100
C1184       C  0.90425908  0.15748412  0.74718974    -0.03000
Br1185     Br  0.94000656  0.20559220  0.74610500    -0.01500
Br1186     Br  0.86696470  0.20204087  0.78576242    -0.01600
Br1187     Br  0.89047798  0.04310363  0.71169252    -0.01600
Br1188     Br  0.81969353  0.03743587  0.75328290    -0.01600
C1189       C  0.96087060  0.00730717  0.01385502    -0.02700
C1190       C  0.99678012  0.03192402  0.01834703     0.07000
C1191       C  0.53377090  0.02276148  0.00532671    -0.02800
C1192       C  0.53412308  0.49131528  0.98796990    -0.02800
C1193       C  0.99802783  0.46766290  0.98321226     0.07100
C1194       C  0.96128739  0.47638063  0.99617378    -0.03000
Br1195     Br  0.91066578  0.44540313  0.99054864    -0.01500
Br1196     Br  0.91061868  0.01252888  0.03266310    -0.01600
Br1197     Br  0.58451652  0.48308228  0.96967513    -0.01600
Br1198     Br  0.58565535  0.05217467  0.01040353    -0.01600
C1199       C  0.98409277  0.25934306  0.02188188    -0.02700
C1200       C  0.50068697  0.21992860  0.01701169     0.07000
C1201       C  0.51815224  0.21156494  0.99472659    -0.02800
C1202       C  0.51852179  0.24236991  0.97716799    -0.02800
C1203       C  0.50175964  0.28193115  0.98190331     0.07100
C1204       C  0.98510732  0.29047751  0.00448363    -0.03000
Br1205     Br  0.96658987  0.34563369  0.01233003    -0.01500
Br1206     Br  0.96133965  0.27099459  0.05274196    -0.01600
Br1207     Br  0.54094902  0.22951884  0.94646454    -0.01600
Br1208     Br  0.54045675  0.15730822  0.98805868    -0.01600
C1209       C  0.67937784  0.26838772  0.87147409    -0.02700
C1210       C  0.66703780  0.22720566  0.86732409     0.07000
C1211       C  0.62562920  0.21531140  0.87201021    -0.02800
C1212       C  0.59630790  0.24497896  0.87960557    -0.02800
C1213       C  0.60901644  0.28590349  0.88440206     0.07100
C1214       C  0.65065727  0.29746230  0.88017210    -0.03000
Br1215     Br  0.66808711  0.35399011  0.88464991    -0.01500
Br1216     Br  0.73634888  0.28489277  0.86635760    -0.01600
Br1217     Br  0.53869075  0.22944066  0.88290524    -0.01600
Br1218     Br  0.60884744  0.15848853  0.86807709    -0.01600
C1219       C  0.87576276  0.21758302  0.87914487    -0.02700
C1220       C  0.84915745  0.22888584  0.86025430     0.07000
C1221       C  0.85284057  0.26897740  0.85032986    -0.02800
C1222       C  0.88031125  0.29801442  0.86036275    -0.02800
C1223       C  0.90484585  0.28741274  0.88017365     0.07100
C1224       C  0.90260373  0.24694116  0.88940450    -0.03000
Br1225     Br  0.93668846  0.23116568  0.91601587    -0.01500
Br1226     Br  0.87833933  0.16090500  0.88994086    -0.01600
Br1227     Br  0.88146797  0.35369457  0.84800450    -0.01600
Br1228     Br  0.81969134  0.28575274  0.82342567    -0.01600
C1229       C  0.87908893  0.50968112  0.84956583    -0.02700
C1230       C  0.85412554  0.03153777  0.86598456     0.07000
C1231       C  0.86274469  0.02734821  0.89040344    -0.02800
C1232       C  0.89324467  0.99911494  0.89814166    -0.02800
C1233       C  0.91377973  0.47300960  0.88187327     0.07100
C1234       C  0.90825917  0.48008465  0.85741086    -0.03000
Br1235     Br  0.93950686  0.44917629  0.83413877    -0.01500
Br1236     Br  0.87525853  0.52145707  0.81613885    -0.01600
Br1237     Br  0.90898410  0.99865704  0.93106458    -0.01600
Br1238     Br  0.83214668  0.05825776  0.91396685    -0.01600
C1239       C  0.62863466  0.01952995  0.85959803    -0.02700
C1240       C  0.66865071  0.02353781  0.86956552     0.07000
C1241       C  0.67890652  0.00039034  0.88997984    -0.02800
C1242       C  0.65005788  0.47239423  0.89975942    -0.02800
C1243       C  0.61026424  0.46767182  0.88938185     0.07100
C1244       C  0.59918491  0.49295350  0.86995340    -0.03000
Br1245     Br  0.54257529  0.49414352  0.85846721    -0.01500
Br1246     Br  0.61344295  0.05060949  0.83173552    -0.01600
Br1247     Br  0.66674096  0.43957374  0.92679423    -0.01600
Br1248     Br  0.73378820  0.00413270  0.90371027    -0.01600
Fe1249     Fe  0.50941047  0.87622251  0.88244707     1.65800
Fe1250     Fe  0.95111964  0.87574655  0.93236839     1.73200
Fe1251     Fe  0.55623906  0.87470219  0.93600044     1.54400
O1252       O  0.58793878  0.83625795  0.91243099    -0.82500
O1253       O  0.96706630  0.92643167  0.95271352    -0.80800
O1254       O  0.54646948  0.82439770  0.88163762    -0.85000
O1255       O  0.56141403  0.91429146  0.88211391    -0.79900
O1256       O  0.53795806  0.82292972  0.95417566    -0.81600
O1257       O  0.92545976  0.91703746  0.90821162    -0.84400
C1258       C  0.58136153  0.93471556  0.89754926     0.96400
C1259       C  0.57913180  0.81700374  0.89346720     1.03800
O1260       O  0.00549754  0.87500854  0.91694151    -1.13400
O1261       O  0.93004040  0.82585120  0.91298804    -0.75800
O1262       O  0.95821201  0.83785789  0.87768780    -0.79300
O1263       O  0.57794945  0.92719102  0.91943881    -0.80000
C1264       C  0.93282601  0.81867953  0.89098868     0.95300
O1265       O  0.97314474  0.92872241  0.88056948    -0.77900
O1266       O  0.96986351  0.83437502  0.95865333    -0.83100
C1267       C  0.99909452  0.93364188  0.96509421     0.97900
C1268       C  0.00319253  0.81482297  0.96371467     1.03800
O1269       O  0.53221089  0.91255303  0.96252967    -0.78800
C1270       C  0.93912729  0.93764114  0.89070463     1.02100
Fe1271     Fe  0.75779793  0.62757801  0.86726530     1.65800
Fe1272     Fe  0.75373181  0.67585374  0.81423386     1.73200
Fe1273     Fe  0.75520174  0.57114824  0.81669596     1.54400
O1274       O  0.79730667  0.54460671  0.84014676    -0.82500
O1275       O  0.70111599  0.65806878  0.79626236    -0.80800
O1276       O  0.81050506  0.59117733  0.86792579    -0.85000
O1277       O  0.71922273  0.57672491  0.87194534    -0.79900
O1278       O  0.80535051  0.58750890  0.79587482    -0.81600
O1279       O  0.71566025  0.70625211  0.83835190    -0.84400
C1280       C  0.69971707  0.55168144  0.85868866     0.96400
C1281       C  0.81871830  0.55745117  0.85752148     1.03800
O1282       O  0.75503293  0.62477746  0.83274013    -1.13400
O1283       O  0.80683476  0.69766859  0.83051784    -0.75800
O1284       O  0.79650764  0.67900131  0.86775582    -0.79300
O1285       O  0.70609967  0.54958698  0.83658066    -0.80000
C1286       C  0.81584384  0.69997530  0.85227135     0.95300
O1287       O  0.70580438  0.66481111  0.86934091    -0.77900
O1288       O  0.79133565  0.65302583  0.78737410    -0.83100
C1289       C  0.69296975  0.62392848  0.78629553     0.97900
C1290       C  0.81239898  0.62022061  0.78419677     1.03800
O1291       O  0.71276839  0.59064591  0.79090814    -0.78800
C1292       C  0.69758794  0.69735380  0.85769509     1.02100
Fe1293     Fe  0.75742868  0.87887797  0.61862412     1.65800
Fe1294     Fe  0.70198744  0.87877936  0.56743840     1.73200
Fe1295     Fe  0.80833081  0.87734355  0.56608033     1.54400
O1296       O  0.83291147  0.92674536  0.58391677    -0.82500
O1297       O  0.72061238  0.83562084  0.54263669    -0.80800
O1298       O  0.80954504  0.91702012  0.62049295    -0.85000
O1299       O  0.79316484  0.82610908  0.61943130    -0.79900
O1300       O  0.78734361  0.91922891  0.54071698    -0.81600
O1301       O  0.67844001  0.83080367  0.58710934    -0.84400
C1302       C  0.82542893  0.81609679  0.60790116     0.96400
C1303       C  0.83320711  0.93501389  0.60573624     1.03800
O1304       O  0.75585019  0.87846357  0.58396634    -1.13400
O1305       O  0.67662289  0.92175800  0.59034039    -0.75800
O1306       O  0.72130273  0.93111082  0.62009235    -0.79300
O1307       O  0.83644221  0.83554120  0.58933939    -0.80000
C1308       C  0.68847319  0.94050169  0.60886354     0.95300
O1309       O  0.70543036  0.84135721  0.62273794    -0.77900
O1310       O  0.71892416  0.92688849  0.54579177    -0.83100
C1311       C  0.75458269  0.81769930  0.53740697     0.97900
C1312       C  0.75284553  0.93668833  0.53589093     1.03800
O1313       O  0.78936539  0.82784362  0.54617383    -0.78800
C1314       C  0.67983537  0.82354624  0.60906325     1.02100
Fe1315     Fe  0.50850457  0.62810952  0.63279028     1.65800
Fe1316     Fe  0.50550711  0.57390464  0.68339342     1.73200
Fe1317     Fe  0.50366121  0.67814966  0.68477307     1.54400
O1318       O  0.55520779  0.70234687  0.66799045    -0.82500
O1319       O  0.96697400  0.59329053  0.71064146    -0.80800
O1320       O  0.54342970  0.68227006  0.63102099    -0.85000
O1321       O  0.95388739  0.66150071  0.63095356    -0.79900
O1322       O  0.54361692  0.65566705  0.71106462    -0.81600
O1323       O  0.95364189  0.55533675  0.66500243    -0.84400
C1324       C  0.94440975  0.69447142  0.64190924     0.96400
C1325       C  0.56200201  0.70492255  0.64597842     1.03800
O1326       O  0.50595611  0.62697109  0.66706788    -1.13400
O1327       O  0.54356632  0.54619202  0.65847673    -0.75800
O1328       O  0.56342952  0.59501524  0.63365284    -0.79300
O1329       O  0.96394468  0.70620019  0.66032724    -0.80000
C1330       C  0.56837604  0.55957491  0.64280594     0.95300
O1331       O  0.97352342  0.57414407  0.62887162    -0.77900
O1332       O  0.55748402  0.58948726  0.70278958    -0.83100
C1333       C  0.94486068  0.62530662  0.71394114     0.97900
C1334       C  0.56442078  0.62243885  0.71432804     1.03800
O1335       O  0.95140262  0.65863746  0.70275357    -0.78800
C1336       C  0.95063372  0.55309557  0.64271647     1.02100
Fe1337     Fe  0.73740651  0.62908066  0.38463956     1.65800
Fe1338     Fe  0.79772662  0.62790229  0.43477027     1.73200
Fe1339     Fe  0.69166748  0.62993718  0.43926872     1.54400
O1340       O  0.66596028  0.67750555  0.41996059    -0.82500
O1341       O  0.78122068  0.58092705  0.45766939    -0.80800
O1342       O  0.69420660  0.67618142  0.38436260    -0.85000
O1343       O  0.69079634  0.58551616  0.38396547    -0.79900
O1344       O  0.71412565  0.67437779  0.46179152    -0.81600
O1345       O  0.82019933  0.58374054  0.41210134    -0.84400
C1346       C  0.66420864  0.57216068  0.39859196     0.96400
C1347       C  0.66877368  0.69138419  0.39910715     1.03800
O1348       O  0.74231647  0.62902942  0.41955063    -1.13400
O1349       O  0.82119163  0.67412174  0.41353659    -0.75800
O1350       O  0.78413475  0.67264653  0.38017567    -0.79300
O1351       O  0.66153254  0.58559852  0.41954022    -0.80000
C1352       C  0.81388582  0.68636312  0.39265632     0.95300
O1353       O  0.77877843  0.58109031  0.38072017    -0.77900
O1354       O  0.78309783  0.67225213  0.45964198    -0.83100
C1355       C  0.74732616  0.56751035  0.46624377     0.97900
C1356       C  0.74968094  0.68683455  0.46816153     1.03800
O1357       O  0.71204417  0.58262522  0.46096611    -0.78800
C1358       C  0.80971773  0.56824631  0.39245283     1.02100
Fe1359     Fe  0.98679330  0.87899781  0.37105016     1.65800
Fe1360     Fe  0.99601165  0.82794624  0.31898200     1.73200
Fe1361     Fe  0.99510387  0.93262165  0.31999259     1.54400
O1362       O  0.95449194  0.96188707  0.34312541    -0.82500
O1363       O  0.54835104  0.84665673  0.30099773    -0.80800
O1364       O  0.93426693  0.91464538  0.36904207    -0.85000
O1365       O  0.52469088  0.93054052  0.37579373    -0.79900
O1366       O  0.94518846  0.91702166  0.29894292    -0.81600
O1367       O  0.53543137  0.80096695  0.34346368    -0.84400
C1368       C  0.54783933  0.95225321  0.36244773     0.96400
C1369       C  0.92996861  0.94950420  0.35921328     1.03800
O1370       O  0.99263744  0.87958314  0.33666672    -1.13400
O1371       O  0.94474500  0.80275366  0.33530911    -0.75800
O1372       O  0.94817109  0.82794963  0.37181582    -0.79300
O1373       O  0.54525039  0.95138182  0.34005853    -0.80000
C1374       C  0.93305309  0.80339360  0.35666758     0.95300
O1375       O  0.53838312  0.84221764  0.37514388    -0.77900
O1376       O  0.95619414  0.84954776  0.29261843    -0.83100
C1377       C  0.55620157  0.87962844  0.28984939     0.97900
C1378       C  0.93705409  0.88333101  0.28837576     1.03800
O1379       O  0.53567571  0.91224470  0.29395708    -0.78800
C1380       C  0.55037183  0.81093247  0.36344974     1.02100
Fe1381     Fe  0.99242026  0.63204355  0.11793215     1.65800
Fe1382     Fe  0.54818191  0.62751930  0.06704557     1.73200
Fe1383     Fe  0.94232016  0.62947680  0.06463015     1.54400
O1384       O  0.91415546  0.58737357  0.08737878    -0.82500
O1385       O  0.53310102  0.67543157  0.04449208    -0.80800
O1386       O  0.95382744  0.58132076  0.11973840    -0.85000
O1387       O  0.94204168  0.67182900  0.11915741    -0.79900
O1388       O  0.96076292  0.58030293  0.04364861    -0.81600
O1389       O  0.57529467  0.67079306  0.08965679    -0.84400
C1390       C  0.91826147  0.68929467  0.10432134     0.96400
C1391       C  0.92290412  0.57075669  0.10718033     1.03800
O1392       O  0.49419943  0.62981006  0.08313728    -1.13400
O1393       O  0.56815717  0.57893534  0.08741477    -0.75800
O1394       O  0.54323766  0.59317928  0.12293607    -0.79300
O1395       O  0.91770295  0.67919386  0.08272603    -0.80000
C1396       C  0.56757030  0.57317150  0.10949833     0.95300
O1397       O  0.53049078  0.68300276  0.11890866    -0.77900
O1398       O  0.52912920  0.58349396  0.04286254    -0.83100
C1399       C  0.49923986  0.68714011  0.03504493     0.97900
C1400       C  0.99547079  0.56712584  0.03604053     1.03800
O1401       O  0.96412168  0.67160494  0.04012295    -0.78800
C1402       C  0.56409632  0.69067489  0.10801928     1.02100
Fe1403     Fe  0.74311880  0.88163316  0.13478436     1.65800
Fe1404     Fe  0.74759442  0.93264096  0.18746263     1.73200
Fe1405     Fe  0.74684765  0.82730199  0.18624778     1.54400
O1406       O  0.70485045  0.79889436  0.16342163    -0.82500
O1407       O  0.79792659  0.91468496  0.20734865    -0.80800
O1408       O  0.69256190  0.84231117  0.13412614    -0.85000
O1409       O  0.78443012  0.83300725  0.13095186    -0.79900
O1410       O  0.69688205  0.84499025  0.20727846    -0.81600
O1411       O  0.78866689  0.96008025  0.16436567    -0.84400
C1412       C  0.80326990  0.80771865  0.14440896     0.96400
C1413       C  0.68456920  0.80908361  0.14504990     1.03800
O1414       O  0.74620782  0.88059229  0.16947422    -1.13400
O1415       O  0.69685777  0.95742964  0.16955893    -0.75800
O1416       O  0.70145247  0.92969652  0.13367711    -0.79300
O1417       O  0.79612753  0.80506106  0.16643401    -0.80000
C1418       C  0.68573912  0.95525195  0.14806129     0.95300
O1419       O  0.79255659  0.92241599  0.13159872    -0.77900
O1420       O  0.70787781  0.91160689  0.21340095    -0.83100
C1421       C  0.80793274  0.88052917  0.21674778     0.97900
C1422       C  0.68863788  0.87845327  0.21808287     1.03800
O1423       O  0.78981905  0.84684933  0.21147776    -0.78800
C1424       C  0.80393634  0.95297878  0.14411335     1.02100
C1425       C  0.63919498  0.78144161  0.11150461    -0.02700
C1426       C  0.65110947  0.78075410  0.13579049     0.07000
C1427       C  0.63133261  0.75167265  0.15096974    -0.02800
C1428       C  0.60332487  0.72224665  0.14179428    -0.02800
C1429       C  0.59213828  0.72299331  0.11770552     0.07100
C1430       C  0.60880540  0.75378502  0.10291064    -0.03000
Br1431     Br  0.58807688  0.75951569  0.07098606    -0.01500
Br1432     Br  0.66519712  0.81792041  0.08875628    -0.01600
Br1433     Br  0.58199522  0.67923528  0.16231281    -0.01600
Br1434     Br  0.64016154  0.75192816  0.18477735    -0.01600
C1435       C  0.87576020  0.78015558  0.13952996    -0.02700
C1436       C  0.83330152  0.77890745  0.13349686     0.07000
C1437       C  0.81918927  0.75026563  0.11655058    -0.02800
C1438       C  0.84700594  0.72159503  0.10648120    -0.02800
C1439       C  0.88954078  0.72203149  0.11291716     0.07100
C1440       C  0.90399846  0.75256079  0.12880093    -0.03000
Br1441     Br  0.96287567  0.75888898  0.13461304    -0.01500
Br1442     Br  0.89533650  0.82035388  0.16209908    -0.01600
Br1443     Br  0.82561570  0.68066730  0.08481328    -0.01600
Br1444     Br  0.76098180  0.74887172  0.10794694    -0.01600
C1445       C  0.83000062  0.52568360  0.13864574    -0.02700
C1446       C  0.83531859  0.98262257  0.13474284     0.07000
C1447       C  0.87085222  0.96865337  0.12217328    -0.02800
C1448       C  0.89986213  0.99740390  0.11318898    -0.02800
C1449       C  0.89383244  0.53998851  0.11690257     0.07100
C1450       C  0.85959229  0.55391939  0.13012591    -0.03000
Br1451     Br  0.85398562  0.61215888  0.13711406    -0.01500
Br1452     Br  0.78136077  0.54753892  0.15457403    -0.01600
Br1453     Br  0.94857729  0.97875667  0.09630338    -0.01600
Br1454     Br  0.88153321  0.91030536  0.11817276    -0.01600
C1455       C  0.66611889  0.51006770  0.11919859    -0.02700
C1456       C  0.65496291  0.98505633  0.13861902     0.09400
C1457       C  0.61466114  0.98821631  0.14828367    -0.02800
C1458       C  0.58578423  0.01676686  0.13884641    -0.02800
C1459       C  0.59737154  0.54281511  0.11979095     0.07100
C1460       C  0.63807786  0.53959219  0.11030311    -0.03000
Br1461     Br  0.65759261  0.57725371  0.08607602    -0.01500
Br1462     Br  0.72027662  0.50429691  0.10450897    -0.01600
Br1463     Br  0.52988157  0.01805018  0.15148755    -0.01600
Br1464     Br  0.59780987  0.95086047  0.17307775    -0.01600
C1465       C  0.64277496  0.84234891  0.24812344    -0.02700
C1466       C  0.65539266  0.87933610  0.23679491     0.07000
C1467       C  0.63584304  0.91701279  0.24365756    -0.02800
C1468       C  0.60544791  0.91749071  0.26172048    -0.02800
C1469       C  0.59023325  0.87978527  0.27148092     0.07100
C1470       C  0.60812510  0.84209504  0.26336326    -0.03000
Br1471     Br  0.58419789  0.78853455  0.27060846    -0.01500
Br1472     Br  0.67488700  0.79177786  0.24529175    -0.01600
Br1473     Br  0.58624779  0.97120828  0.27262720    -0.01600
Br1474     Br  0.64906868  0.96940134  0.22859947    -0.01600
C1475       C  0.86723355  0.86041499  0.27405057    -0.02700
C1476       C  0.90392086  0.88319275  0.27025517     0.07000
C1477       C  0.90917864  0.90524277  0.24900392    -0.02800
C1478       C  0.87832722  0.90371198  0.23131403    -0.02800
C1479       C  0.84152506  0.88043678  0.23490125     0.07100
C1480       C  0.83613886  0.85896223  0.25651264    -0.03000
Br1481     Br  0.78522571  0.82947564  0.26312697    -0.01500
Br1482     Br  0.85854404  0.83324666  0.30403559    -0.01600
Br1483     Br  0.88794469  0.93226732  0.20179276    -0.01600
Br1484     Br  0.95933164  0.93687940  0.24395334    -0.01600
C1485       C  0.57312191  0.76168621  0.39447725    -0.02700
C1486       C  0.58220668  0.78389596  0.37380952     0.07000
C1487       C  0.62052890  0.77855843  0.36235284    -0.02800
C1488       C  0.64962771  0.74975677  0.37101866    -0.02800
C1489       C  0.64024628  0.72552403  0.39140195     0.07100
C1490       C  0.60185820  0.73280900  0.40344685    -0.03000
Br1491     Br  0.58553149  0.70294881  0.43168420    -0.01500
Br1492     Br  0.51943021  0.76880975  0.40955983    -0.01600
Br1493     Br  0.70202929  0.74540397  0.35429705    -0.01600
Br1494     Br  0.63306267  0.81139338  0.33466240    -0.01600
C1495       C  0.88150082  0.70242016  0.37328433    -0.02700
C1496       C  0.84290377  0.71640497  0.38209733     0.07000
C1497       C  0.83328889  0.75890560  0.38169475    -0.02800
C1498       C  0.86238102  0.78743063  0.37276038    -0.02800
C1499       C  0.90137277  0.77351522  0.36451340     0.07100
C1500       C  0.91086613  0.73094092  0.36473695    -0.03000
Br1501     Br  0.96509926  0.71187100  0.35468798    -0.01500
Br1502     Br  0.89424250  0.64404904  0.37299831    -0.01600
Br1503     Br  0.84862757  0.84551151  0.37143957    -0.01600
Br1504     Br  0.78088849  0.77814503  0.39404457    -0.01600
C1505       C  0.85231614  0.50477103  0.39867839    -0.02700
C1506       C  0.83553016  0.53426345  0.38295593     0.07000
C1507       C  0.84653484  0.53288211  0.35878734    -0.02800
C1508       C  0.87513103  0.50304362  0.35076404    -0.02800
C1509       C  0.89591716  0.97711730  0.36713369     0.07100
C1510       C  0.88442362  0.97842042  0.39125386    -0.03000
Br1511     Br  0.91486889  0.94798718  0.41513404    -0.01500
Br1512     Br  0.82989625  0.99860837  0.43022717    -0.01600
Br1513     Br  0.88436765  0.49742142  0.31713834    -0.01600
Br1514     Br  0.82498031  0.57300053  0.33650549    -0.01600
C1515       C  0.64938345  0.50357100  0.37977333    -0.02700
C1516       C  0.63465657  0.54000499  0.39072205     0.07000
C1517       C  0.59141909  0.54602287  0.39367769    -0.02800
C1518       C  0.56320102  0.51593134  0.38569922    -0.02800
C1519       C  0.57783054  0.98088444  0.37344560     0.07100
C1520       C  0.62095938  0.97434952  0.37091671    -0.03000
Br1521     Br  0.64097946  0.92440388  0.35619043    -0.01500
Br1522     Br  0.70846343  0.99292835  0.37756306    -0.01600
Br1523     Br  0.50431364  0.52335726  0.39114347    -0.01600
Br1524     Br  0.57027524  0.59711686  0.40666627    -0.01600
C1525       C  0.77372688  0.50698086  0.52168187    -0.02700
C1526       C  0.75185849  0.96984969  0.51788896     0.07000
C1527       C  0.72789803  0.96499818  0.49717566    -0.02800
C1528       C  0.72721393  0.49645522  0.47992215    -0.02800
C1529       C  0.74918598  0.53357064  0.48373036     0.07100
C1530       C  0.77211323  0.53887099  0.50475043    -0.03000
Br1531     Br  0.79911397  0.59100203  0.51108712    -0.01500
Br1532     Br  0.80340999  0.51543815  0.55089024    -0.01600
Br1533     Br  0.69766807  0.48788896  0.45062819    -0.01600
Br1534     Br  0.69605046  0.91514089  0.49234479    -0.01600
C1535       C  0.77775771  0.78699876  0.49926658    -0.02700
C1536       C  0.75378486  0.78390828  0.52001988     0.07000
C1537       C  0.72918217  0.74863467  0.52407031    -0.02800
C1538       C  0.72763416  0.71695127  0.50708266    -0.02800
C1539       C  0.75197469  0.71974734  0.48628810     0.07100
C1540       C  0.77765937  0.75463591  0.48271165    -0.03000
Br1541     Br  0.81166460  0.75956931  0.45475424    -0.01500
Br1542     Br  0.80864906  0.83696749  0.49273035    -0.01600
Br1543     Br  0.69321090  0.66910818  0.51307072    -0.01600
Br1544     Br  0.69917323  0.74280656  0.55347974    -0.01600
C1545       C  0.60659881  0.80042581  0.61636959    -0.02700
C1546       C  0.64979770  0.79368370  0.61911208     0.07000
C1547       C  0.66397568  0.75829645  0.63129831    -0.02800
C1548       C  0.63518355  0.72949082  0.64027704    -0.02800
C1549       C  0.59214638  0.73586262  0.63723553     0.07100
C1550       C  0.57787995  0.77161632  0.62545101    -0.03000
Br1551     Br  0.51886035  0.78177540  0.62245328    -0.01500
Br1552     Br  0.58657543  0.85005096  0.60103099    -0.01600
Br1553     Br  0.65469252  0.68040648  0.65599050    -0.01600
Br1554     Br  0.72288299  0.74807746  0.63468963    -0.01600
C1555       C  0.85551000  0.77220095  0.64107098    -0.02700
C1556       C  0.85172272  0.78096739  0.61656947     0.07000
C1557       C  0.87426685  0.75628079  0.60032407    -0.02800
C1558       C  0.90463603  0.72806078  0.60838176    -0.02800
C1559       C  0.90995279  0.72103338  0.63287143     0.07100
C1560       C  0.88307943  0.74115526  0.64894517    -0.03000
Br1561     Br  0.88208246  0.72469122  0.68182941    -0.01500
Br1562     Br  0.82510707  0.80319730  0.66471249    -0.01600
Br1563     Br  0.94019940  0.70138618  0.58539367    -0.01600
Br1564     Br  0.86184136  0.75837619  0.56690275    -0.01600
C1565       C  0.90626284  0.95818049  0.61290865    -0.02700
C1566       C  0.86313119  0.96612968  0.61437441     0.07000
C1567       C  0.84887824  0.50373068  0.62407475    -0.02800
C1568       C  0.87755904  0.53244452  0.63324078    -0.02800
C1569       C  0.92053975  0.52382850  0.63246693     0.07100
C1570       C  0.93489361  0.98692996  0.62200024    -0.03000
Br1571     Br  0.99383397  0.97515111  0.62083236    -0.01500
Br1572     Br  0.92621034  0.90738790  0.59894809    -0.01600
Br1573     Br  0.85830359  0.58424337  0.64618234    -0.01600
Br1574     Br  0.79029037  0.51687782  0.62347626    -0.01600
C1575       C  0.62016953  0.53569476  0.61175569    -0.02700
C1576       C  0.60278891  0.53181358  0.63479092     0.07000
C1577       C  0.61710847  0.49927146  0.64975385    -0.02800
C1578       C  0.64585694  0.97005904  0.64129722    -0.02800
C1579       C  0.66170298  0.97349797  0.61824484     0.07100
C1580       C  0.64980148  0.00679735  0.60376222    -0.03000
Br1581     Br  0.67478415  0.01291929  0.57285082    -0.01500
Br1582     Br  0.60275799  0.57838938  0.58986749    -0.01600
Br1583     Br  0.66133187  0.92329259  0.66090173    -0.01600
Br1584     Br  0.59868211  0.49314010  0.68221896    -0.01600
C1585       C  0.66981307  0.61136628  0.74467301    -0.02700
C1586       C  0.65996034  0.62320589  0.76799138     0.07000
C1587       C  0.61893060  0.63551344  0.77343816    -0.02800
C1588       C  0.58760333  0.63390302  0.75607126    -0.02800
C1589       C  0.59735404  0.62205082  0.73273478     0.07100
C1590       C  0.63863513  0.61049109  0.72715225    -0.03000
Br1591     Br  0.65322810  0.59477435  0.69537416    -0.01500
Br1592     Br  0.72694280  0.60024589  0.73616627    -0.01600
Br1593     Br  0.53063219  0.64498038  0.76483150    -0.01600
Br1594     Br  0.60534652  0.65510396  0.80460980    -0.01600
C1595       C  0.87247300  0.65600061  0.76427451    -0.02700
C1596       C  0.84661701  0.62075980  0.76635581     0.07000
C1597       C  0.85362280  0.58666304  0.75116534    -0.02800
C1598       C  0.88503806  0.58846595  0.73375228    -0.02800
C1599       C  0.91077355  0.62379944  0.73174445     0.07100
C1600       C  0.90425891  0.65748470  0.74719027    -0.03000
Br1601     Br  0.94000574  0.70559324  0.74610542    -0.01500
Br1602     Br  0.86696506  0.70204049  0.78576346    -0.01600
Br1603     Br  0.89047850  0.54310419  0.71169293    -0.01600
Br1604     Br  0.81969463  0.53743555  0.75328356    -0.01600
C1605       C  0.96087131  0.50730646  0.01385486    -0.02700
C1606       C  0.99678126  0.53192245  0.01834730     0.07000
C1607       C  0.53376914  0.52276425  0.00532472    -0.02800
C1608       C  0.53412476  0.99131268  0.98797179    -0.02800
C1609       C  0.99802686  0.96766466  0.98321187     0.07100
C1610       C  0.96128666  0.97638165  0.99617377    -0.03000
Br1611     Br  0.91066526  0.94540378  0.99054881    -0.01500
Br1612     Br  0.91061829  0.51253008  0.03266187    -0.01600
Br1613     Br  0.58451937  0.98307795  0.96967824    -0.01600
Br1614     Br  0.58565264  0.55217995  0.01040004    -0.01600
C1615       C  0.98409310  0.75934231  0.02188246    -0.02700
C1616       C  0.50068716  0.71992909  0.01701127     0.07000
C1617       C  0.51815316  0.71156534  0.99472637    -0.02800
C1618       C  0.51852279  0.74237004  0.97716763    -0.02800
C1619       C  0.50176020  0.78193119  0.98190269     0.07100
C1620       C  0.98510761  0.79047730  0.00448452    -0.03000
Br1621     Br  0.96659000  0.84563322  0.01233140    -0.01500
Br1622     Br  0.96133869  0.77099252  0.05274240    -0.01600
Br1623     Br  0.54095048  0.72951855  0.94646434    -0.01600
Br1624     Br  0.54045879  0.65730893  0.98805892    -0.01600
C1625       C  0.67937713  0.76838852  0.87147316    -0.02700
C1626       C  0.66703698  0.72720634  0.86732362     0.07000
C1627       C  0.62562838  0.71531229  0.87200993    -0.02800
C1628       C  0.59630725  0.74498011  0.87960516    -0.02800
C1629       C  0.60901595  0.78590472  0.88440122     0.07100
C1630       C  0.65065671  0.79746341  0.88017095    -0.03000
Br1631     Br  0.66808661  0.85399136  0.88464816    -0.01500
Br1632     Br  0.73634815  0.78489338  0.86635641    -0.01600
Br1633     Br  0.53869013  0.72944203  0.88290536    -0.01600
Br1634     Br  0.60884635  0.65848941  0.86807724    -0.01600
C1635       C  0.87576204  0.71758217  0.87914577    -0.02700
C1636       C  0.84915699  0.72888523  0.86025511     0.07000
C1637       C  0.85284065  0.76897672  0.85033066    -0.02800
C1638       C  0.88031135  0.79801353  0.86036370    -0.02800
C1639       C  0.90484571  0.78741164  0.88017465     0.07100
C1640       C  0.90260330  0.74694004  0.88940544    -0.03000
Br1641     Br  0.93668828  0.73116413  0.91601664    -0.01500
Br1642     Br  0.87833798  0.66090413  0.88994177    -0.01600
Br1643     Br  0.88146852  0.85369371  0.84800551    -0.01600
Br1644     Br  0.81969238  0.78575223  0.82342613    -0.01600
C1645       C  0.87908919  0.00967986  0.84956533    -0.02700
C1646       C  0.85412498  0.53153837  0.86598521     0.07000
C1647       C  0.86274442  0.52734871  0.89040405    -0.02800
C1648       C  0.89324517  0.49911608  0.89814206    -0.02800
C1649       C  0.91377926  0.97300817  0.88187303     0.07100
C1650       C  0.90825906  0.98008313  0.85741056    -0.03000
Br1651     Br  0.93950673  0.94917436  0.83413864    -0.01500
Br1652     Br  0.87525888  0.02145533  0.81613828    -0.01600
Br1653     Br  0.90898589  0.49865875  0.93106479    -0.01600
Br1654     Br  0.83214569  0.55825694  0.91396772    -0.01600
C1655       C  0.62863393  0.51952918  0.85959782    -0.02700
C1656       C  0.66864971  0.52353764  0.86956554     0.07000
C1657       C  0.67890550  0.50039043  0.88997995    -0.02800
C1658       C  0.65005866  0.97239449  0.89975943    -0.02800
C1659       C  0.61026473  0.96767276  0.88938210     0.07100
C1660       C  0.59918543  0.99295470  0.86995378    -0.03000
Br1661     Br  0.54257558  0.99414563  0.85846797    -0.01500
Br1662     Br  0.61344228  0.55060856  0.83173524    -0.01600
Br1663     Br  0.66674169  0.93957343  0.92679402    -0.01600
Br1664     Br  0.73378686  0.50413370  0.90371071    -0.01600
loop_ 
_geom_bond_atom_site_label_1 
_geom_bond_atom_site_label_2 
_geom_bond_distance 
_geom_bond_site_symmetry_2 
_ccdc_geom_bond_type 
Fe1           O7   2.078       .  S
Fe1           O6   2.054       .  S
Fe1         O849   2.059   1_455  S
Fe1         O846   2.081   1_455  S
Fe1         O844   1.958       .  S
Fe2           O5   2.070       .  S
Fe2           O9   2.079       .  S
Fe2          O13   2.068       .  S
Fe2          O18   2.088       .  S
Fe2          O12   1.953       .  S
Fe3          O21   2.086       .  S
Fe3           O8   2.051       .  S
Fe3          O15   2.061       .  S
Fe3           O4   2.088       .  S
Fe3         O844   1.955       .  S
O4           C11   1.274       .  A
O5           C19   1.268       .  A
O6           C11   1.267       .  A
O7           C10   1.271       .  A
O8          C852   1.268       .  A
O9           C22   1.272       .  A
C10          O15   1.268       .  A
C10         C411   1.489       .  S
C11         C381   1.481       .  S
O12        Fe833   1.958       .  S
O12        Fe835   1.955       .  S
O13          C16   1.270       .  A
O14        Fe833   2.081       .  S
O14          C16   1.272       .  A
C16         C391   1.487       .  S
O17        Fe833   2.059       .  S
O17          C22   1.267       .  A
O18          C20   1.275       .  A
C19         O853   1.271       .  A
C19         C361   1.506       .  S
C20         O840   1.268       .  A
C20        C1203   1.480       .  S
O21         C851   1.271   1_455  A
C22         C401   1.488       .  S
Fe23         O39   2.060       .  S
Fe23         O29   2.078       .  S
Fe23         O36   2.079       .  S
Fe23         O28   2.060       .  S
Fe23         O34   1.959       .  S
Fe24         O27   2.057       .  S
Fe24         O31   2.079       .  S
Fe24         O35   2.066       .  S
Fe24         O40   2.077       .  S
Fe24         O34   1.955       .  S
Fe25         O43   2.094       .  S
Fe25         O30   2.066       .  S
Fe25         O37   2.060       .  S
Fe25         O26   2.079       .  S
Fe25         O34   1.959       .  S
O26          C33   1.272       .  A
O27          C41   1.269       .  A
O28          C33   1.267       .  A
O29          C32   1.272       .  A
O30          C42   1.268       .  A
O31          C44   1.272       .  A
C32          O37   1.270       .  A
C32         C408   1.486       .  S
C33         C398   1.490       .  S
O35          C38   1.268       .  A
O36          C38   1.271       .  A
C38         C388   1.494       .  S
O39          C44   1.268       .  A
O40          C42   1.270       .  A
C41          O43   1.276       .  A
C41         C338   1.483       .  S
C42         C348   1.493       .  S
C44         C378   1.480       .  S
Fe45         O61   2.080       .  S
Fe45         O51   2.055       .  S
Fe45         O58   2.049       .  S
Fe45         O50   2.085       .  S
Fe45         O56   1.963       .  S
Fe46         O49   2.069       .  S
Fe46         O53   2.054       .  S
Fe46         O57   2.068       .  S
Fe46         O62   2.054       .  S
Fe46         O56   1.968       .  S
Fe47         O65   2.053       .  S
Fe47         O52   2.084       .  S
Fe47         O59   2.090       .  S
Fe47         O48   2.051       .  S
Fe47         O56   1.967       .  S
O48          C55   1.265       .  A
O49          C63   1.270       .  A
O50          C55   1.271       .  A
O51          C54   1.267       .  A
O52          C64   1.272       .  A
O53          C66   1.266       .  A
C54          O59   1.274       .  A
C54         C308   1.496       .  S
C55         C318   1.477       .  S
O57          C60   1.271       .  A
O58          C60   1.268       .  A
C60         C331   1.469       .  S
O61          C66   1.270       .  A
O62          C64   1.266       .  A
C63          O65   1.267       .  A
C63         C288   1.472       .  S
C64         C278   1.479       .  S
C66         C298   1.480       .  S
Fe67         O80   2.062       .  S
Fe67         O72   2.085       .  S
Fe67        O915   2.090   1_455  S
Fe67        O905   2.061   1_455  S
Fe67         O78   1.943       .  S
Fe68         O79   2.070       .  S
Fe68         O84   2.063       .  S
Fe68        O903   2.074   1_455  S
Fe68        O907   2.057   1_455  S
Fe68         O78   1.948       .  S
Fe69         O74   2.094       .  S
Fe69         O70   2.064       .  S
Fe69        O919   2.063   1_455  S
Fe69        O913   2.088   1_455  S
Fe69         O78   1.937       .  S
O70          C77   1.268       .  A
O71        Fe900   2.074       .  S
O71          C85   1.268       .  A
O72          C77   1.271       .  A
O73        Fe899   2.061       .  S
O73          C76   1.271       .  A
O74          C86   1.277       .  A
O75        Fe900   2.057       .  S
O75          C88   1.268       .  A
C76          O81   1.276       .  A
C76         C311   1.490       .  S
C77         C301   1.479       .  S
O79          C82   1.269       .  A
O80          C82   1.267       .  A
O81        Fe901   2.088       .  S
C82         C328   1.493       .  S
O83        Fe899   2.090       .  S
O83          C88   1.273       .  A
O84          C86   1.271       .  A
C85          O87   1.267       .  A
C85         C351   1.489       .  S
C86         C341   1.486       .  S
O87        Fe901   2.063       .  S
C88         C321   1.475       .  S
Fe89        O105   2.053       .  S
Fe89         O95   2.059       .  S
Fe89        O102   2.077       .  S
Fe89         O94   2.058       .  S
Fe89        O100   1.983       .  S
Fe90         O93   2.066       .  S
Fe90         O97   2.051       .  S
Fe90        O101   2.061       .  S
Fe90        O106   2.065       .  S
Fe90        O100   1.978       .  S
Fe91        O109   2.066       .  S
Fe91         O96   2.055       .  S
Fe91        O103   2.063       .  S
Fe91         O92   2.057       .  S
Fe91        O100   1.973       .  S
O92          C99   1.266       .  A
O93         C107   1.269       .  A
O94          C99   1.267       .  A
O95          C98   1.266       .  A
O96         C108   1.265       .  A
O97         C110   1.267       .  A
C98         O103   1.267       .  A
C98         C268   1.479       .  S
C99         C241   1.498       .  S
O101        C104   1.268       .  A
O102        C104   1.270       .  A
C104        C248   1.474       .  S
O105        C110   1.265       .  A
O106        C108   1.267       .  A
C107        O109   1.269       .  A
C107        C281   1.478       .  S
C108        C291   1.482       .  S
C110        C258   1.477       .  S
Fe111       O124   2.068       .  S
Fe111       O116   2.044       .  S
Fe111       O959   2.051       .  S
Fe111       O949   2.084       .  S
Fe111       O122   1.956       .  S
Fe112       O123   2.058       .  S
Fe112       O128   2.085       .  S
Fe112       O947   2.058       .  S
Fe112       O951   2.069       .  S
Fe112       O122   1.951       .  S
Fe113       O118   2.063       .  S
Fe113       O114   2.076       .  S
Fe113       O963   2.075       .  S
Fe113       O957   2.065       .  S
Fe113       O122   1.959       .  S
O114        C121   1.269       .  A
O115       Fe944   2.058   1_455  S
O115        C129   1.264       .  A
O116        C121   1.264       .  A
O117       Fe943   2.084   1_455  S
O117        C120   1.272       .  A
O118        C130   1.272       .  A
O119       Fe944   2.069   1_455  S
O119        C132   1.272       .  A
C120        O125   1.271       .  A
C120        C271   1.477       .  S
C121        C261   1.480       .  S
O123        C126   1.266       .  A
O124        C126   1.267       .  A
O125       Fe945   2.065   1_455  S
C126        C251   1.473       .  S
O127       Fe943   2.051   1_455  S
O127        C132   1.269       .  A
O128        C130   1.275       .  A
C129        O131   1.264       .  A
C129        C221   1.509       .  S
C130        C228   1.479       .  S
O131       Fe945   2.075   1_455  S
C132        C238   1.466       .  S
Fe133       O139   2.066       .  S
Fe133       O138   2.061       .  S
Fe133       O981   2.056       .  S
Fe133       O978   2.077       .  S
Fe133       O976   1.972       .  S
Fe134       O137   2.063       .  S
Fe134       O141   2.090       .  S
Fe134       O145   2.050       .  S
Fe134       O150   2.071       .  S
Fe134       O144   1.960   1_455  S
Fe135       O153   2.067       .  S
Fe135       O140   2.072       .  S
Fe135       O147   2.063       .  S
Fe135       O136   2.081       .  S
Fe135       O976   1.969       .  S
O136        C143   1.274       .  A
O137        C151   1.269   1_455  A
O138        C143   1.270       .  A
O139        C142   1.267       .  A
O140        C152   1.268       .  A
O141        C154   1.274       .  A
C142        O147   1.266       .  A
C142        C191   1.485       .  S
C143        C201   1.473       .  S
O144       Fe965   1.972       .  S
O144       Fe967   1.969       .  S
O145        C148   1.264       .  A
O146       Fe965   2.077   1_455  S
O146        C148   1.268       .  A
C148        C211   1.488       .  S
O149       Fe965   2.056   1_455  S
O149        C154   1.268       .  A
O150        C984   1.266   1_455  A
C151        O985   1.269       .  A
C151        C368   1.472   1_655  S
C152        O982   1.266       .  A
C152        C358   1.518       .  S
O153        C983   1.269       .  A
C154        C181   1.487       .  S
Fe155       O171   2.075       .  S
Fe155       O161   2.067       .  S
Fe155       O168   2.050       .  S
Fe155       O160   2.066       .  S
Fe155       O166   1.967       .  S
Fe156       O159   2.053       .  S
Fe156       O163   2.059       .  S
Fe156       O167   2.078       .  S
Fe156       O172   2.061       .  S
Fe156       O166   1.969       .  S
Fe157       O175   2.087       .  S
Fe157       O162   2.078       .  S
Fe157       O169   2.068       .  S
Fe157       O158   2.085       .  S
Fe157       O166   1.967       .  S
O158        C165   1.270       .  A
O159        C173   1.266       .  A
O160        C165   1.266       .  A
O161        C164   1.270       .  A
O162        C174   1.271       .  A
O163        C176   1.268       .  A
C164        O169   1.271       .  A
C164        C188   1.476       .  S
C165        C178   1.509       .  S
O167        C170   1.271       .  A
O168        C170   1.265       .  A
C170        C208   1.479       .  S
O171        C176   1.272       .  A
O172        C174   1.267       .  A
C173        O175   1.272       .  A
C173        C231   1.491       .  S
C174        C218   1.504       .  S
C176        C198   1.490       .  S
C177        C178   1.428       .  A
C177        C182   1.413       .  A
C177       Br184   1.936       .  S
C178        C179   1.424       .  A
C179        C180   1.411       .  A
C179       Br186   1.935       .  S
C180        C181   1.411       .  A
C180       Br185   1.938       .  S
C181        C182   1.407       .  A
C182       Br183   1.935       .  S
C187        C188   1.407       .  A
C187        C192   1.409       .  A
C187       Br194   1.931       .  S
C188        C189   1.410       .  A
C189        C190   1.407       .  A
C189       Br196   1.933       .  S
C190        C191   1.415       .  A
C190       Br195   1.934       .  S
C191        C192   1.416       .  A
C192       Br193   1.932       .  S
C197        C202   1.405       .  A
C197        C614   1.420   1_545  A
C197       Br204   1.937       .  S
C198        C199   1.418       .  A
C198        C613   1.420       .  A
C199        C200   1.412       .  A
C199       Br206   1.931       .  S
C200        C617   1.406       .  A
C200       Br205   1.930       .  S
C201        C202   1.404       .  A
C201        C616   1.406   1_545  A
C202       Br203   1.933       .  S
C207        C212   1.404       .  A
C207        C624   1.411   1_545  A
C207       Br214   1.937       .  S
C208        C209   1.409       .  A
C208        C623   1.411       .  A
C209        C210   1.412       .  A
C209       Br216   1.929       .  S
C210        C627   1.418       .  A
C210       Br215   1.934       .  S
C211        C212   1.417       .  A
C211        C626   1.418       .  A
C212       Br213   1.938       .  S
C217        C218   1.417       .  A
C217        C222   1.408       .  A
C217       Br224   1.938       .  S
C218        C219   1.424       .  A
C219        C220   1.414       .  A
C219       Br226   1.944       .  S
C220        C221   1.426       .  A
C220       Br225   1.943       .  S
C221        C222   1.423       .  A
C222       Br223   1.940       .  S
C227        C228   1.408       .  A
C227        C232   1.410       .  A
C227       Br234   1.931       .  S
C228        C229   1.408       .  A
C229        C230   1.411       .  A
C229       Br236   1.932       .  S
C230        C231   1.418       .  A
C230       Br235   1.934       .  S
C231        C232   1.417       .  A
C232       Br233   1.932       .  S
C237        C238   1.403       .  A
C237        C242   1.406       .  A
C237       Br244   1.938       .  S
C238        C239   1.402       .  A
C239        C240   1.406       .  A
C239       Br246   1.935       .  S
C240        C241   1.427       .  A
C240       Br245   1.936       .  S
C241        C242   1.428       .  A
C242       Br243   1.940       .  S
C247        C248   1.410       .  A
C247        C252   1.406       .  A
C247       Br254   1.931       .  S
C248        C249   1.408       .  A
C249        C250   1.408       .  A
C249       Br256   1.925       .  S
C250        C251   1.410       .  A
C250       Br255   1.930       .  S
C251        C252   1.409       .  A
C252       Br253   1.933       .  S
C257        C258   1.410       .  A
C257        C678   1.401   1_545  A
C257       Br680   1.936   1_545  S
C258        C259   1.414       .  A
C259        C260   1.406       .  A
C259       Br266   1.935       .  S
C260        C677   1.416   1_545  A
C260       Br265   1.936   1_545  S
C261        C262   1.415       .  A
C261        C676   1.416       .  A
C262        C673   1.401       .  A
C262       Br263   1.935       .  S
Br264       C673   1.936       .  S
C267        C268   1.413       .  A
C267        C688   1.409   1_545  A
C267       Br690   1.933   1_545  S
C268        C269   1.412       .  A
C269        C270   1.407       .  A
C269       Br276   1.931       .  S
C270        C687   1.410   1_545  A
C270       Br275   1.931       .  S
C271        C272   1.409       .  A
C271        C686   1.410       .  A
C272        C683   1.409       .  A
C272       Br273   1.928       .  S
Br274       C683   1.933       .  S
C277        C282   1.408       .  A
C277        C694   1.410   1_545  A
C277       Br284   1.930       .  S
C278        C279   1.412       .  A
C278        C693   1.410       .  A
C279        C696   1.409       .  A
C279       Br286   1.932       .  S
C280        C281   1.411   1_565  A
C280        C695   1.409       .  A
C280       Br285   1.932       .  S
C281        C282   1.411       .  A
C282       Br283   1.932       .  S
C287        C288   1.408       .  A
C287        C292   1.406       .  A
C287       Br294   1.934       .  S
C288        C289   1.408       .  A
C289        C290   1.407       .  A
C289       Br296   1.933       .  S
C290        C291   1.416       .  A
C290       Br295   1.934       .  S
C291        C292   1.414       .  A
C292       Br293   1.930       .  S
C297        C298   1.413       .  A
C297        C302   1.409       .  A
C297       Br304   1.933       .  S
C298        C299   1.410       .  A
C299        C300   1.409       .  A
C299       Br306   1.930       .  S
C300        C301   1.408       .  A
C300       Br305   1.922       .  S
C301        C302   1.410       .  A
C302       Br303   1.931       .  S
C307        C308   1.421       .  A
C307        C312   1.409       .  A
C307       Br314   1.936       .  S
C308        C309   1.417       .  A
C309        C310   1.410       .  A
C309       Br316   1.935       .  S
C310        C311   1.415       .  A
C310       Br315   1.934       .  S
C311        C312   1.413       .  A
C312       Br313   1.936       .  S
C317        C318   1.411       .  A
C317        C322   1.408       .  A
C317       Br324   1.932       .  S
C318        C735   1.410       .  A
C319        C320   1.410       .  A
C319        C734   1.410   1_545  A
C319       Br326   1.929       .  S
C320        C321   1.409       .  A
C320       Br325   1.930       .  S
C321        C738   1.409   1_545  A
C322        C737   1.409       .  A
C322       Br323   1.932       .  S
C327        C328   1.424       .  A
C327        C748   1.407       .  A
C327       Br334   1.936       .  S
C328        C329   1.426   1_545  A
C329        C746   1.404       .  A
C329       Br336   1.941       .  S
C330        C331   1.405       .  A
C330        C745   1.404       .  A
C330       Br335   1.939       .  S
C331        C332   1.405       .  A
C332        C743   1.407       .  A
C332       Br333   1.935       .  S
C337        C338   1.411       .  A
C337        C342   1.411       .  A
C337       Br344   1.931       .  S
C338        C339   1.410       .  A
C339        C340   1.409       .  A
C339       Br346   1.926       .  S
C340        C341   1.411       .  A
C340       Br345   1.929       .  S
C341        C342   1.413       .  A
C342       Br343   1.928       .  S
C347        C348   1.417       .  A
C347        C352   1.407       .  A
C347       Br354   1.932       .  S
C348        C349   1.417       .  A
C349        C350   1.412       .  A
C349       Br356   1.935       .  S
C350        C351   1.417       .  A
C350       Br355   1.936       .  S
C351        C352   1.413       .  A
C352       Br353   1.937       .  S
C357        C358   1.427       .  A
C357        C778   1.416   1_544  A
C357       Br364   1.941       .  S
C358       C1191   1.429       .  A
C359       C1190   1.429   1_455  A
C359        C776   1.415   1_544  A
C359       Br366   1.943       .  S
C360        C775   1.415   1_556  A
C360       C1193   1.417   1_455  A
C360       Br365   1.940       .  S
C361        C362   1.418       .  A
C361       C1192   1.417       .  A
C362        C773   1.416   1_556  A
C362       Br363   1.939       .  S
C367        C372   1.408       .  A
C367       C1200   1.408       .  A
C367       Br374   1.931       .  S
C368        C369   1.407   1_554  A
C368       C1199   1.408   1_455  A
C369        C370   1.407       .  A
C369       Br376   1.931       .  S
C370        C371   1.413       .  A
C370       Br375   1.927       .  S
C371        C852   1.480       .  S
C371       C1204   1.413   1_456  A
C372       C1203   1.413   1_554  A
C372       Br373   1.931       .  S
C377        C378   1.411       .  A
C377        C382   1.405       .  A
C377       Br384   1.930       .  S
C378        C379   1.411       .  A
C379        C380   1.410       .  A
C379       Br386   1.930       .  S
C380        C381   1.413       .  A
C380       Br385   1.928       .  S
C381        C382   1.410       .  A
C382       Br383   1.930       .  S
C387        C388   1.416       .  A
C387        C392   1.410       .  A
C387       Br394   1.933       .  S
C388        C389   1.418       .  A
C389        C390   1.411       .  A
C389       Br396   1.935       .  S
C390        C391   1.413       .  A
C390       Br395   1.931       .  S
C391        C392   1.411       .  A
C392       Br393   1.930       .  S
C397        C402   1.409       .  A
C397        C814   1.416       .  A
C397       Br404   1.934       .  S
C398        C399   1.416       .  A
C398        C813   1.416       .  A
C399        C400   1.407   1_545  A
C399       Br406   1.935       .  S
C400        C817   1.413       .  A
C400       Br405   1.932       .  S
C401        C402   1.415       .  A
C401        C816   1.413       .  A
C402       Br403   1.934       .  S
C407        C408   1.411       .  A
C407        C828   1.407   1_545  A
C407       Br414   1.932       .  S
C408        C409   1.415       .  A
C409        C826   1.410   1_545  A
C409       Br416   1.932       .  S
C410        C411   1.416       .  A
C410        C825   1.410       .  A
C410       Br415   1.937       .  S
C411        C412   1.415       .  A
C412        C823   1.407       .  A
C412       Br413   1.932       .  S
Fe417      O1265   2.059   1_455  S
Fe417       O423   2.078       .  S
Fe417      O1262   2.081   1_455  S
Fe417       O422   2.054       .  S
Fe417      O1260   1.958       .  S
Fe418       O421   2.070       .  S
Fe418       O425   2.079       .  S
Fe418       O429   2.068       .  S
Fe418       O434   2.088       .  S
Fe418       O428   1.953       .  S
Fe419       O437   2.086       .  S
Fe419       O424   2.051       .  S
Fe419       O431   2.061       .  S
Fe419       O420   2.088       .  S
Fe419      O1260   1.955       .  S
O420        C427   1.274       .  A
O421        C435   1.268       .  A
O422        C427   1.267       .  A
O423        C426   1.271       .  A
O424       C1268   1.268       .  A
O425        C438   1.272       .  A
C426        O431   1.268       .  A
C426        C827   1.489       .  S
C427        C797   1.481       .  S
O428      Fe1249   1.958       .  S
O428      Fe1251   1.955       .  S
O429        C432   1.270       .  A
O430      Fe1249   2.081       .  S
O430        C432   1.272       .  A
C432        C807   1.487       .  S
O433      Fe1249   2.059       .  S
O433        C438   1.267       .  A
O434        C436   1.275       .  A
C435       O1269   1.271       .  A
C435        C777   1.506       .  S
C436       O1256   1.268       .  A
C436       C1619   1.480       .  S
O437       C1267   1.271   1_455  A
C438        C817   1.488       .  S
Fe439       O455   2.060       .  S
Fe439       O445   2.078       .  S
Fe439       O452   2.079       .  S
Fe439       O444   2.060       .  S
Fe439       O450   1.959       .  S
Fe440       O443   2.057       .  S
Fe440       O447   2.079       .  S
Fe440       O451   2.066       .  S
Fe440       O456   2.077       .  S
Fe440       O450   1.955       .  S
Fe441       O459   2.094       .  S
Fe441       O446   2.066       .  S
Fe441       O453   2.060       .  S
Fe441       O442   2.079       .  S
Fe441       O450   1.959       .  S
O442        C449   1.272       .  A
O443        C457   1.269       .  A
O444        C449   1.267       .  A
O445        C448   1.272       .  A
O446        C458   1.268       .  A
O447        C460   1.272       .  A
C448        O453   1.270       .  A
C448        C824   1.486       .  S
C449        C814   1.490       .  S
O451        C454   1.268       .  A
O452        C454   1.271       .  A
C454        C804   1.494       .  S
O455        C460   1.268       .  A
O456        C458   1.270       .  A
C457        O459   1.276       .  A
C457        C754   1.483       .  S
C458        C764   1.493       .  S
C460        C794   1.480       .  S
Fe461       O477   2.080       .  S
Fe461       O467   2.055       .  S
Fe461       O474   2.049       .  S
Fe461       O466   2.085       .  S
Fe461       O472   1.963       .  S
Fe462       O465   2.069       .  S
Fe462       O469   2.054       .  S
Fe462       O473   2.068       .  S
Fe462       O478   2.054       .  S
Fe462       O472   1.968       .  S
Fe463       O481   2.053       .  S
Fe463       O468   2.084       .  S
Fe463       O475   2.090       .  S
Fe463       O464   2.051       .  S
Fe463       O472   1.967       .  S
O464        C471   1.265       .  A
O465        C479   1.270       .  A
O466        C471   1.271       .  A
O467        C470   1.267       .  A
O468        C480   1.272       .  A
O469        C482   1.266       .  A
C470        O475   1.274       .  A
C470        C724   1.496       .  S
C471        C734   1.477       .  S
O473        C476   1.271       .  A
O474        C476   1.268       .  A
C476        C747   1.469       .  S
O477        C482   1.270       .  A
O478        C480   1.266       .  A
C479        O481   1.267       .  A
C479        C704   1.472       .  S
C480        C694   1.479       .  S
C482        C714   1.480       .  S
Fe483      O1331   2.090   1_455  S
Fe483      O1321   2.061   1_455  S
Fe483       O496   2.062       .  S
Fe483       O488   2.085       .  S
Fe483       O494   1.943       .  S
Fe484      O1319   2.074   1_455  S
Fe484      O1323   2.057   1_455  S
Fe484       O495   2.070       .  S
Fe484       O500   2.063       .  S
Fe484       O494   1.948       .  S
Fe485      O1335   2.063   1_455  S
Fe485       O490   2.094       .  S
Fe485      O1329   2.088   1_455  S
Fe485       O486   2.064       .  S
Fe485       O494   1.937       .  S
O486        C493   1.268       .  A
O487      Fe1316   2.074       .  S
O487        C501   1.268       .  A
O488        C493   1.271       .  A
O489      Fe1315   2.061       .  S
O489        C492   1.271       .  A
O490        C502   1.277       .  A
O491      Fe1316   2.057       .  S
O491        C504   1.268       .  A
C492        O497   1.276       .  A
C492        C727   1.490       .  S
C493        C717   1.479       .  S
O495        C498   1.269       .  A
O496        C498   1.267       .  A
O497      Fe1317   2.088       .  S
C498        C744   1.493       .  S
O499      Fe1315   2.090       .  S
O499        C504   1.273       .  A
O500        C502   1.271       .  A
C501        O503   1.267       .  A
C501        C767   1.489       .  S
C502        C757   1.486       .  S
O503      Fe1317   2.063       .  S
C504        C737   1.475       .  S
Fe505       O521   2.053       .  S
Fe505       O511   2.059       .  S
Fe505       O518   2.077       .  S
Fe505       O510   2.058       .  S
Fe505       O516   1.983       .  S
Fe506       O509   2.066       .  S
Fe506       O513   2.051       .  S
Fe506       O517   2.061       .  S
Fe506       O522   2.065       .  S
Fe506       O516   1.978       .  S
Fe507       O525   2.066       .  S
Fe507       O512   2.055       .  S
Fe507       O519   2.062       .  S
Fe507       O508   2.057       .  S
Fe507       O516   1.973       .  S
O508        C515   1.266       .  A
O509        C523   1.269       .  A
O510        C515   1.267       .  A
O511        C514   1.266       .  A
O512        C524   1.265       .  A
O513        C526   1.267       .  A
C514        O519   1.267       .  A
C514        C684   1.479       .  S
C515        C657   1.498       .  S
O517        C520   1.268       .  A
O518        C520   1.270       .  A
C520        C664   1.474       .  S
O521        C526   1.265       .  A
O522        C524   1.267       .  A
C523        O525   1.269       .  A
C523        C697   1.478       .  S
C524        C707   1.482       .  S
C526        C674   1.477       .  S
Fe527      O1375   2.051       .  S
Fe527      O1365   2.084       .  S
Fe527       O540   2.068       .  S
Fe527       O532   2.044       .  S
Fe527       O538   1.956       .  S
Fe528      O1363   2.058       .  S
Fe528      O1367   2.069       .  S
Fe528       O539   2.058       .  S
Fe528       O544   2.085       .  S
Fe528       O538   1.951       .  S
Fe529      O1379   2.075       .  S
Fe529       O534   2.063       .  S
Fe529      O1373   2.065       .  S
Fe529       O530   2.076       .  S
Fe529       O538   1.959       .  S
O530        C537   1.269       .  A
O531      Fe1360   2.058   1_455  S
O531        C545   1.264       .  A
O532        C537   1.264       .  A
O533      Fe1359   2.084   1_455  S
O533        C536   1.272       .  A
O534        C546   1.272       .  A
O535      Fe1360   2.069   1_455  S
O535        C548   1.272       .  A
C536        O541   1.271       .  A
C536        C687   1.477       .  S
C537        C677   1.480       .  S
O539        C542   1.266       .  A
O540        C542   1.267       .  A
O541      Fe1361   2.065   1_455  S
C542        C667   1.473       .  S
O543      Fe1359   2.051   1_455  S
O543        C548   1.269       .  A
O544        C546   1.275       .  A
C545        O547   1.264       .  A
C545        C637   1.509       .  S
C546        C644   1.479       .  S
O547      Fe1361   2.075   1_455  S
C548        C654   1.466       .  S
Fe549      O1397   2.056       .  S
Fe549       O555   2.066       .  S
Fe549      O1394   2.077       .  S
Fe549       O554   2.061       .  S
Fe549      O1392   1.972       .  S
Fe550       O553   2.063       .  S
Fe550       O557   2.090       .  S
Fe550       O561   2.050       .  S
Fe550       O566   2.071       .  S
Fe550       O560   1.960   1_455  S
Fe551       O569   2.067       .  S
Fe551       O556   2.072       .  S
Fe551       O563   2.063       .  S
Fe551       O552   2.081       .  S
Fe551      O1392   1.969       .  S
O552        C559   1.274       .  A
O553        C567   1.269   1_455  A
O554        C559   1.270       .  A
O555        C558   1.267       .  A
O556        C568   1.268       .  A
O557        C570   1.274       .  A
C558        O563   1.266       .  A
C558        C607   1.485       .  S
C559        C617   1.473       .  S
O560      Fe1381   1.972       .  S
O560      Fe1383   1.969       .  S
O561        C564   1.264       .  A
O562      Fe1381   2.077   1_455  S
O562        C564   1.268       .  A
C564        C627   1.488       .  S
O565      Fe1381   2.056   1_455  S
O565        C570   1.268       .  A
O566       C1400   1.266   1_455  A
C567       O1401   1.269       .  A
C567        C784   1.472   1_655  S
C568       O1398   1.266       .  A
C568        C774   1.518       .  S
O569       C1399   1.269       .  A
C570        C597   1.487       .  S
Fe571       O587   2.075       .  S
Fe571       O577   2.067       .  S
Fe571       O584   2.050       .  S
Fe571       O576   2.066       .  S
Fe571       O582   1.967       .  S
Fe572       O575   2.053       .  S
Fe572       O579   2.059       .  S
Fe572       O583   2.078       .  S
Fe572       O588   2.061       .  S
Fe572       O582   1.969       .  S
Fe573       O591   2.087       .  S
Fe573       O578   2.078       .  S
Fe573       O585   2.068       .  S
Fe573       O574   2.085       .  S
Fe573       O582   1.967       .  S
O574        C581   1.270       .  A
O575        C589   1.266       .  A
O576        C581   1.266       .  A
O577        C580   1.270       .  A
O578        C590   1.271       .  A
O579        C592   1.268       .  A
C580        O585   1.271       .  A
C580        C604   1.476       .  S
C581        C594   1.509       .  S
O583        C586   1.271       .  A
O584        C586   1.265       .  A
C586        C624   1.479       .  S
O587        C592   1.272       .  A
O588        C590   1.267       .  A
C589        O591   1.272       .  A
C589        C647   1.491       .  S
C590        C634   1.504       .  S
C592        C614   1.490       .  S
C593        C594   1.428       .  A
C593        C598   1.413       .  A
C593       Br600   1.936       .  S
C594        C595   1.424       .  A
C595        C596   1.411       .  A
C595       Br602   1.935       .  S
C596        C597   1.411       .  A
C596       Br601   1.938       .  S
C597        C598   1.407       .  A
C598       Br599   1.935       .  S
C603        C604   1.407       .  A
C603        C608   1.409       .  A
C603       Br610   1.931       .  S
C604        C605   1.410       .  A
C605        C606   1.407       .  A
C605       Br612   1.933       .  S
C606        C607   1.415       .  A
C606       Br611   1.934       .  S
C607        C608   1.416       .  A
C608       Br609   1.932       .  S
C613        C618   1.405       .  A
C613       Br620   1.937       .  S
C614        C615   1.418       .  A
C615        C616   1.412       .  A
C615       Br622   1.931       .  S
C616       Br621   1.930       .  S
C617        C618   1.404       .  A
C618       Br619   1.933       .  S
C623        C628   1.404       .  A
C623       Br630   1.937       .  S
C624        C625   1.409       .  A
C625        C626   1.412   1_565  A
C625       Br632   1.929       .  S
C626       Br631   1.934       .  S
C627        C628   1.417       .  A
C628       Br629   1.938       .  S
C633        C634   1.417       .  A
C633        C638   1.408       .  A
C633       Br640   1.938       .  S
C634        C635   1.424       .  A
C635        C636   1.414       .  A
C635       Br642   1.944       .  S
C636        C637   1.426       .  A
C636       Br641   1.943       .  S
C637        C638   1.423       .  A
C638       Br639   1.940       .  S
C643        C644   1.408       .  A
C643        C648   1.410       .  A
C643       Br650   1.931       .  S
C644        C645   1.408       .  A
C645        C646   1.411       .  A
C645       Br652   1.932       .  S
C646        C647   1.418       .  A
C646       Br651   1.934       .  S
C647        C648   1.417       .  A
C648       Br649   1.932       .  S
C653        C654   1.403       .  A
C653        C658   1.406       .  A
C653       Br660   1.938       .  S
C654        C655   1.402       .  A
C655        C656   1.406       .  A
C655       Br662   1.935       .  S
C656        C657   1.427       .  A
C656       Br661   1.936       .  S
C657        C658   1.428       .  A
C658       Br659   1.940       .  S
C663        C664   1.410       .  A
C663        C668   1.406       .  A
C663       Br670   1.931       .  S
C664        C665   1.408       .  A
C665        C666   1.408       .  A
C665       Br672   1.925       .  S
C666        C667   1.410       .  A
C666       Br671   1.930       .  S
C667        C668   1.409       .  A
C668       Br669   1.933       .  S
C673        C674   1.410       .  A
C674        C675   1.414       .  A
C675        C676   1.406       .  A
C675       Br682   1.935       .  S
C676       Br681   1.936       .  S
C677        C678   1.415       .  A
C678       Br679   1.935       .  S
C683        C684   1.413       .  A
C684        C685   1.412       .  A
C685        C686   1.407       .  A
C685       Br692   1.931       .  S
C686       Br691   1.931       .  S
C687        C688   1.409       .  A
C688       Br689   1.928       .  S
C693        C698   1.408       .  A
C693       Br700   1.930       .  S
C694        C695   1.412       .  A
C695       Br702   1.932       .  S
C696        C697   1.411       .  A
C696       Br701   1.932       .  S
C697        C698   1.411       .  A
C698       Br699   1.932       .  S
C703        C704   1.408       .  A
C703        C708   1.406       .  A
C703       Br710   1.934       .  S
C704        C705   1.408       .  A
C705        C706   1.407       .  A
C705       Br712   1.933       .  S
C706        C707   1.416       .  A
C706       Br711   1.934       .  S
C707        C708   1.414       .  A
C708       Br709   1.930       .  S
C713        C714   1.413       .  A
C713        C718   1.409       .  A
C713       Br720   1.933       .  S
C714        C715   1.410       .  A
C715        C716   1.409       .  A
C715       Br722   1.930       .  S
C716        C717   1.408       .  A
C716       Br721   1.922       .  S
C717        C718   1.410       .  A
C718       Br719   1.931       .  S
C723        C724   1.421       .  A
C723        C728   1.409       .  A
C723       Br730   1.936       .  S
C724        C725   1.417       .  A
C725        C726   1.410       .  A
C725       Br732   1.935       .  S
C726        C727   1.415       .  A
C726       Br731   1.934       .  S
C727        C728   1.413       .  A
C728       Br729   1.936       .  S
C733        C734   1.411       .  A
C733        C738   1.408       .  A
C733       Br740   1.932       .  S
C735        C736   1.410       .  A
C735       Br742   1.929       .  S
C736        C737   1.409       .  A
C736       Br741   1.930       .  S
C738       Br739   1.932       .  S
C743        C744   1.424       .  A
C743       Br750   1.936       .  S
C744        C745   1.426       .  A
C745       Br752   1.941       .  S
C746        C747   1.405       .  A
C746       Br751   1.939       .  S
C747        C748   1.405   1_565  A
C748       Br749   1.935       .  S
C753        C754   1.411       .  A
C753        C758   1.411       .  A
C753       Br760   1.931       .  S
C754        C755   1.410       .  A
C755        C756   1.409       .  A
C755       Br762   1.926       .  S
C756        C757   1.411       .  A
C756       Br761   1.929       .  S
C757        C758   1.413       .  A
C758       Br759   1.928       .  S
C763        C764   1.417       .  A
C763        C768   1.407       .  A
C763       Br770   1.932       .  S
C764        C765   1.417       .  A
C765        C766   1.412       .  A
C765       Br772   1.935       .  S
C766        C767   1.417       .  A
C766       Br771   1.936       .  S
C767        C768   1.413       .  A
C768       Br769   1.937       .  S
C773        C774   1.427       .  A
C773       Br780   1.941       .  S
C774       C1607   1.429       .  A
C775       C1606   1.429   1_455  A
C775       Br782   1.943       .  S
C776       C1609   1.417   1_455  A
C776       Br781   1.940       .  S
C777       C1608   1.417       .  A
C777        C778   1.418       .  A
C778       Br779   1.939       .  S
C783       C1616   1.408       .  A
C783        C788   1.408       .  A
C783       Br790   1.931       .  S
C784       C1615   1.408   1_455  A
C784        C785   1.407   1_554  A
C785        C786   1.407       .  A
C785       Br792   1.931       .  S
C786        C787   1.413       .  A
C786       Br791   1.927       .  S
C787       C1268   1.480       .  S
C787       C1620   1.413   1_456  A
C788       C1619   1.413   1_554  A
C788       Br789   1.931       .  S
C793        C794   1.411       .  A
C793        C798   1.405       .  A
C793       Br800   1.930       .  S
C794        C795   1.411       .  A
C795        C796   1.410       .  A
C795       Br802   1.930       .  S
C796        C797   1.413       .  A
C796       Br801   1.928       .  S
C797        C798   1.410       .  A
C798       Br799   1.930       .  S
C803        C804   1.416       .  A
C803        C808   1.410       .  A
C803       Br810   1.933       .  S
C804        C805   1.418       .  A
C805        C806   1.411       .  A
C805       Br812   1.935       .  S
C806        C807   1.413       .  A
C806       Br811   1.931       .  S
C807        C808   1.411       .  A
C808       Br809   1.930       .  S
C813        C818   1.409   1_545  A
C813       Br820   1.934       .  S
C814        C815   1.416       .  A
C815        C816   1.407       .  A
C815       Br822   1.935       .  S
C816       Br821   1.932       .  S
C817        C818   1.415       .  A
C818       Br819   1.934       .  S
C823        C824   1.411       .  A
C823       Br830   1.932       .  S
C824        C825   1.415       .  A
C825       Br832   1.932       .  S
C826        C827   1.416       .  A
C826       Br831   1.937       .  S
C827        C828   1.415       .  A
C828       Br829   1.932       .  S
Fe833       O839   2.078       .  S
Fe833       O838   2.054       .  S
Fe834       O837   2.070       .  S
Fe834       O841   2.079       .  S
Fe834       O845   2.068       .  S
Fe834       O850   2.088       .  S
Fe834       O844   1.953   1_655  S
Fe835       O853   2.086       .  S
Fe835       O840   2.051       .  S
Fe835       O847   2.061       .  S
Fe835       O836   2.088       .  S
O836        C843   1.274       .  A
O837        C851   1.268       .  A
O838        C843   1.267       .  A
O839        C842   1.271       .  A
O841        C854   1.272       .  A
C842        O847   1.268       .  A
C842       C1243   1.489       .  S
C843       C1213   1.481       .  S
O845        C848   1.270       .  A
O846        C848   1.272       .  A
C848       C1223   1.487       .  S
O849        C854   1.267       .  A
O850        C852   1.275   1_655  A
C851       C1193   1.506       .  S
C854       C1233   1.488       .  S
Fe855       O871   2.060       .  S
Fe855       O861   2.078       .  S
Fe855       O868   2.079       .  S
Fe855       O860   2.060       .  S
Fe855       O866   1.959       .  S
Fe856       O859   2.057       .  S
Fe856       O863   2.079       .  S
Fe856       O867   2.066       .  S
Fe856       O872   2.077       .  S
Fe856       O866   1.955       .  S
Fe857       O875   2.094       .  S
Fe857       O862   2.066       .  S
Fe857       O869   2.060       .  S
Fe857       O858   2.079       .  S
Fe857       O866   1.959       .  S
O858        C865   1.272       .  A
O859        C873   1.269       .  A
O860        C865   1.267       .  A
O861        C864   1.272       .  A
O862        C874   1.268       .  A
O863        C876   1.272       .  A
C864        O869   1.270       .  A
C864       C1240   1.486       .  S
C865       C1230   1.490       .  S
O867        C870   1.268       .  A
O868        C870   1.271       .  A
C870       C1220   1.494       .  S
O871        C876   1.268       .  A
O872        C874   1.270       .  A
C873        O875   1.276       .  A
C873       C1170   1.483       .  S
C874       C1180   1.493       .  S
C876       C1210   1.480       .  S
Fe877       O893   2.080       .  S
Fe877       O883   2.055       .  S
Fe877       O890   2.049       .  S
Fe877       O882   2.085       .  S
Fe877       O888   1.963       .  S
Fe878       O881   2.069       .  S
Fe878       O885   2.054       .  S
Fe878       O889   2.068       .  S
Fe878       O894   2.054       .  S
Fe878       O888   1.968       .  S
Fe879       O897   2.053       .  S
Fe879       O884   2.084       .  S
Fe879       O891   2.090       .  S
Fe879       O880   2.051       .  S
Fe879       O888   1.967       .  S
O880        C887   1.265       .  A
O881        C895   1.270       .  A
O882        C887   1.271       .  A
O883        C886   1.267       .  A
O884        C896   1.272       .  A
O885        C898   1.266       .  A
C886        O891   1.274       .  A
C886       C1140   1.496       .  S
C887       C1150   1.477       .  S
O889        C892   1.271       .  A
O890        C892   1.268       .  A
C892       C1163   1.469       .  S
O893        C898   1.270       .  A
O894        C896   1.266       .  A
C895        O897   1.267       .  A
C895       C1120   1.472       .  S
C896       C1110   1.479       .  S
C898       C1130   1.480       .  S
Fe899       O912   2.062       .  S
Fe899       O904   2.085       .  S
Fe899       O910   1.943       .  S
Fe900       O911   2.070       .  S
Fe900       O916   2.063       .  S
Fe900       O910   1.948       .  S
Fe901       O906   2.094       .  S
Fe901       O902   2.064       .  S
Fe901       O910   1.937       .  S
O902        C909   1.268       .  A
O903        C917   1.268       .  A
O904        C909   1.271       .  A
O905        C908   1.271       .  A
O906        C918   1.277       .  A
O907        C920   1.268       .  A
C908        O913   1.276       .  A
C908       C1143   1.490       .  S
C909       C1133   1.479       .  S
O911        C914   1.269       .  A
O912        C914   1.267       .  A
C914       C1160   1.493       .  S
O915        C920   1.273       .  A
O916        C918   1.271       .  A
C917        O919   1.267       .  A
C917       C1183   1.489       .  S
C918       C1173   1.486       .  S
C920       C1153   1.475       .  S
Fe921       O937   2.053       .  S
Fe921       O927   2.059       .  S
Fe921       O934   2.077       .  S
Fe921       O926   2.058       .  S
Fe921       O932   1.983       .  S
Fe922       O925   2.066       .  S
Fe922       O929   2.051       .  S
Fe922       O933   2.061       .  S
Fe922       O938   2.065       .  S
Fe922       O932   1.978       .  S
Fe923       O941   2.066       .  S
Fe923       O928   2.055       .  S
Fe923       O935   2.062       .  S
Fe923       O924   2.057       .  S
Fe923       O932   1.973       .  S
O924        C931   1.266       .  A
O925        C939   1.269       .  A
O926        C931   1.267       .  A
O927        C930   1.266       .  A
O928        C940   1.265       .  A
O929        C942   1.267       .  A
C930        O935   1.267       .  A
C930       C1100   1.479       .  S
C931       C1073   1.498       .  S
O933        C936   1.268       .  A
O934        C936   1.270       .  A
C936       C1080   1.474       .  S
O937        C942   1.265       .  A
O938        C940   1.267       .  A
C939        O941   1.269       .  A
C939       C1113   1.478       .  S
C940       C1123   1.482       .  S
C942       C1090   1.477       .  S
Fe943       O956   2.068       .  S
Fe943       O948   2.044       .  S
Fe943       O954   1.956       .  S
Fe944       O955   2.058       .  S
Fe944       O960   2.085       .  S
Fe944       O954   1.951       .  S
Fe945       O950   2.063       .  S
Fe945       O946   2.076       .  S
Fe945       O954   1.959       .  S
O946        C953   1.269       .  A
O947        C961   1.264       .  A
O948        C953   1.264       .  A
O949        C952   1.272       .  A
O950        C962   1.272       .  A
O951        C964   1.272       .  A
C952        O957   1.271       .  A
C952       C1103   1.477       .  S
C953       C1093   1.480       .  S
O955        C958   1.266       .  A
O956        C958   1.267       .  A
C958       C1083   1.473       .  S
O959        C964   1.269       .  A
O960        C962   1.275       .  A
C961        O963   1.264       .  A
C961       C1053   1.509       .  S
C962       C1060   1.479       .  S
C964       C1070   1.466       .  S
Fe965       O971   2.066       .  S
Fe965       O970   2.061       .  S
Fe966       O969   2.063       .  S
Fe966       O973   2.090       .  S
Fe966       O977   2.050       .  S
Fe966       O982   2.071       .  S
Fe966       O976   1.960       .  S
Fe967       O985   2.067       .  S
Fe967       O972   2.072       .  S
Fe967       O979   2.063       .  S
Fe967       O968   2.081       .  S
O968        C975   1.274       .  A
O969        C983   1.269       .  A
O970        C975   1.270       .  A
O971        C974   1.267       .  A
O972        C984   1.268       .  A
O973        C986   1.274       .  A
C974        O979   1.266       .  A
C974       C1023   1.485       .  S
C975       C1033   1.473       .  S
O977        C980   1.264       .  A
O978        C980   1.268       .  A
C980       C1043   1.488       .  S
O981        C986   1.268       .  A
C983       C1200   1.472       .  S
C984       C1190   1.518       .  S
C986       C1013   1.487       .  S
Fe987      O1003   2.075       .  S
Fe987       O993   2.067       .  S
Fe987      O1000   2.050       .  S
Fe987       O992   2.066       .  S
Fe987       O998   1.967       .  S
Fe988       O991   2.053       .  S
Fe988       O995   2.059       .  S
Fe988       O999   2.078       .  S
Fe988      O1004   2.061       .  S
Fe988       O998   1.969       .  S
Fe989      O1007   2.087       .  S
Fe989       O994   2.078       .  S
Fe989      O1001   2.068       .  S
Fe989       O990   2.085       .  S
Fe989       O998   1.967       .  S
O990        C997   1.270       .  A
O991       C1005   1.266       .  A
O992        C997   1.266       .  A
O993        C996   1.270       .  A
O994       C1006   1.271       .  A
O995       C1008   1.268       .  A
C996       O1001   1.271       .  A
C996       C1020   1.476       .  S
C997       C1010   1.509       .  S
O999       C1002   1.271       .  A
O1000      C1002   1.265       .  A
C1002      C1040   1.479       .  S
O1003      C1008   1.272       .  A
O1004      C1006   1.267       .  A
C1005      O1007   1.272       .  A
C1005      C1063   1.491       .  S
C1006      C1050   1.504       .  S
C1008      C1030   1.490       .  S
C1009      C1010   1.428       .  A
C1009      C1014   1.413       .  A
C1009     Br1016   1.936       .  S
C1010      C1011   1.424       .  A
C1011      C1012   1.411       .  A
C1011     Br1018   1.935       .  S
C1012      C1013   1.411       .  A
C1012     Br1017   1.938       .  S
C1013      C1014   1.407       .  A
C1014     Br1015   1.935       .  S
C1019      C1020   1.407       .  A
C1019      C1024   1.409       .  A
C1019     Br1026   1.931       .  S
C1020      C1021   1.410       .  A
C1021      C1022   1.407       .  A
C1021     Br1028   1.933       .  S
C1022      C1023   1.415       .  A
C1022     Br1027   1.934       .  S
C1023      C1024   1.416       .  A
C1024     Br1025   1.932       .  S
C1029      C1446   1.420   1_545  A
C1029      C1034   1.405       .  A
C1029     Br1036   1.937       .  S
C1030      C1445   1.420       .  A
C1030      C1031   1.418       .  A
C1031      C1032   1.412       .  A
C1031     Br1038   1.931       .  S
C1032      C1449   1.406       .  A
C1032     Br1037   1.930       .  S
C1033      C1448   1.406   1_545  A
C1033      C1034   1.404       .  A
C1034     Br1035   1.933       .  S
C1039      C1456   1.411   1_545  A
C1039      C1044   1.404       .  A
C1039     Br1046   1.937       .  S
C1040      C1455   1.411       .  A
C1040      C1041   1.409       .  A
C1041      C1042   1.412       .  A
C1041     Br1048   1.929       .  S
C1042      C1459   1.418       .  A
C1042     Br1047   1.934       .  S
C1043      C1458   1.418       .  A
C1043      C1044   1.417       .  A
C1044     Br1045   1.938       .  S
C1049      C1050   1.417       .  A
C1049      C1054   1.408       .  A
C1049     Br1056   1.938       .  S
C1050      C1051   1.424       .  A
C1051      C1052   1.414       .  A
C1051     Br1058   1.944       .  S
C1052      C1053   1.426       .  A
C1052     Br1057   1.943       .  S
C1053      C1054   1.423       .  A
C1054     Br1055   1.940       .  S
C1059      C1060   1.408       .  A
C1059      C1064   1.410       .  A
C1059     Br1066   1.931       .  S
C1060      C1061   1.408       .  A
C1061      C1062   1.411       .  A
C1061     Br1068   1.932       .  S
C1062      C1063   1.418       .  A
C1062     Br1067   1.934       .  S
C1063      C1064   1.417       .  A
C1064     Br1065   1.932       .  S
C1069      C1070   1.403       .  A
C1069      C1074   1.406       .  A
C1069     Br1076   1.938       .  S
C1070      C1071   1.402       .  A
C1071      C1072   1.406       .  A
C1071     Br1078   1.935       .  S
C1072      C1073   1.427       .  A
C1072     Br1077   1.936       .  S
C1073      C1074   1.428       .  A
C1074     Br1075   1.940       .  S
C1079      C1080   1.410       .  A
C1079      C1084   1.406       .  A
C1079     Br1086   1.931       .  S
C1080      C1081   1.408       .  A
C1081      C1082   1.408       .  A
C1081     Br1088   1.925       .  S
C1082      C1083   1.410       .  A
C1082     Br1087   1.930       .  S
C1083      C1084   1.409       .  A
C1084     Br1085   1.933       .  S
C1089      C1090   1.410       .  A
C1089      C1510   1.401   1_545  A
C1089     Br1512   1.936   1_545  S
C1090      C1091   1.414       .  A
C1091      C1092   1.406       .  A
C1091     Br1098   1.935       .  S
C1092      C1509   1.416   1_545  A
C1092     Br1097   1.936   1_545  S
C1093      C1508   1.416       .  A
C1093      C1094   1.415       .  A
C1094      C1505   1.401       .  A
C1094     Br1095   1.935       .  S
Br1096     C1505   1.936       .  S
C1099      C1100   1.413       .  A
C1099      C1520   1.409   1_545  A
C1099     Br1522   1.933   1_545  S
C1100      C1101   1.412       .  A
C1101      C1102   1.407       .  A
C1101     Br1108   1.931       .  S
C1102      C1519   1.410   1_545  A
C1102     Br1107   1.931       .  S
C1103      C1518   1.410       .  A
C1103      C1104   1.409       .  A
C1104      C1515   1.409       .  A
C1104     Br1105   1.928       .  S
Br1106     C1515   1.933       .  S
C1109      C1526   1.410   1_545  A
C1109      C1114   1.408       .  A
C1109     Br1116   1.930       .  S
C1110      C1525   1.410       .  A
C1110      C1111   1.412       .  A
C1111      C1528   1.409       .  A
C1111     Br1118   1.932       .  S
C1112      C1527   1.409       .  A
C1112      C1113   1.411   1_565  A
C1112     Br1117   1.932       .  S
C1113      C1114   1.411       .  A
C1114     Br1115   1.932       .  S
C1119      C1120   1.408       .  A
C1119      C1124   1.406       .  A
C1119     Br1126   1.934       .  S
C1120      C1121   1.408       .  A
C1121      C1122   1.407       .  A
C1121     Br1128   1.933       .  S
C1122      C1123   1.416       .  A
C1122     Br1127   1.934       .  S
C1123      C1124   1.414       .  A
C1124     Br1125   1.930       .  S
C1129      C1130   1.413       .  A
C1129      C1134   1.409       .  A
C1129     Br1136   1.933       .  S
C1130      C1131   1.410       .  A
C1131      C1132   1.409       .  A
C1131     Br1138   1.930       .  S
C1132      C1133   1.408       .  A
C1132     Br1137   1.922       .  S
C1133      C1134   1.410       .  A
C1134     Br1135   1.931       .  S
C1139      C1140   1.421       .  A
C1139      C1144   1.409       .  A
C1139     Br1146   1.936       .  S
C1140      C1141   1.417       .  A
C1141      C1142   1.410       .  A
C1141     Br1148   1.935       .  S
C1142      C1143   1.415       .  A
C1142     Br1147   1.934       .  S
C1143      C1144   1.413       .  A
C1144     Br1145   1.936       .  S
C1149      C1150   1.411       .  A
C1149      C1154   1.408       .  A
C1149     Br1156   1.932       .  S
C1150      C1567   1.410       .  A
C1151      C1566   1.410   1_545  A
C1151      C1152   1.410       .  A
C1151     Br1158   1.929       .  S
C1152      C1153   1.409       .  A
C1152     Br1157   1.930       .  S
C1153      C1570   1.409   1_545  A
C1154      C1569   1.409       .  A
C1154     Br1155   1.932       .  S
C1159      C1160   1.424       .  A
C1159      C1580   1.407       .  A
C1159     Br1166   1.936       .  S
C1160      C1161   1.426   1_545  A
C1161      C1578   1.404       .  A
C1161     Br1168   1.941       .  S
C1162      C1577   1.404       .  A
C1162      C1163   1.405       .  A
C1162     Br1167   1.939       .  S
C1163      C1164   1.405       .  A
C1164      C1575   1.407       .  A
C1164     Br1165   1.935       .  S
C1169      C1170   1.411       .  A
C1169      C1174   1.411       .  A
C1169     Br1176   1.931       .  S
C1170      C1171   1.410       .  A
C1171      C1172   1.409       .  A
C1171     Br1178   1.926       .  S
C1172      C1173   1.411       .  A
C1172     Br1177   1.929       .  S
C1173      C1174   1.413       .  A
C1174     Br1175   1.928       .  S
C1179      C1180   1.417       .  A
C1179      C1184   1.407       .  A
C1179     Br1186   1.932       .  S
C1180      C1181   1.417       .  A
C1181      C1182   1.412       .  A
C1181     Br1188   1.935       .  S
C1182      C1183   1.417       .  A
C1182     Br1187   1.936       .  S
C1183      C1184   1.413       .  A
C1184     Br1185   1.937       .  S
C1189      C1190   1.427       .  A
C1189      C1610   1.416   1_544  A
C1189     Br1196   1.941       .  S
C1191      C1608   1.415   1_544  A
C1191     Br1198   1.943       .  S
C1192      C1607   1.415   1_556  A
C1192     Br1197   1.940       .  S
C1193      C1194   1.418       .  A
C1194      C1605   1.416   1_556  A
C1194     Br1195   1.939       .  S
C1199      C1204   1.408       .  A
C1199     Br1206   1.931       .  S
C1200      C1201   1.407   1_554  A
C1201      C1202   1.407       .  A
C1201     Br1208   1.931       .  S
C1202      C1203   1.413       .  A
C1202     Br1207   1.927       .  S
C1204     Br1205   1.931       .  S
C1209      C1210   1.411       .  A
C1209      C1214   1.405       .  A
C1209     Br1216   1.930       .  S
C1210      C1211   1.411       .  A
C1211      C1212   1.410       .  A
C1211     Br1218   1.930       .  S
C1212      C1213   1.413       .  A
C1212     Br1217   1.928       .  S
C1213      C1214   1.410       .  A
C1214     Br1215   1.930       .  S
C1219      C1220   1.416       .  A
C1219      C1224   1.410       .  A
C1219     Br1226   1.933       .  S
C1220      C1221   1.418       .  A
C1221      C1222   1.411       .  A
C1221     Br1228   1.935       .  S
C1222      C1223   1.413       .  A
C1222     Br1227   1.931       .  S
C1223      C1224   1.411       .  A
C1224     Br1225   1.930       .  S
C1229      C1646   1.416       .  A
C1229      C1234   1.409       .  A
C1229     Br1236   1.934       .  S
C1230      C1645   1.416       .  A
C1230      C1231   1.416       .  A
C1231      C1232   1.407   1_545  A
C1231     Br1238   1.935       .  S
C1232      C1649   1.413       .  A
C1232     Br1237   1.932       .  S
C1233      C1648   1.413       .  A
C1233      C1234   1.415       .  A
C1234     Br1235   1.934       .  S
C1239      C1240   1.411       .  A
C1239      C1660   1.407   1_545  A
C1239     Br1246   1.932       .  S
C1240      C1241   1.415       .  A
C1241      C1658   1.410   1_545  A
C1241     Br1248   1.932       .  S
C1242      C1657   1.410       .  A
C1242      C1243   1.416       .  A
C1242     Br1247   1.937       .  S
C1243      C1244   1.415       .  A
C1244      C1655   1.407       .  A
C1244     Br1245   1.932       .  S
Fe1249     O1255   2.078       .  S
Fe1249     O1254   2.054       .  S
Fe1250     O1253   2.070       .  S
Fe1250     O1257   2.079       .  S
Fe1250     O1261   2.068       .  S
Fe1250     O1266   2.088       .  S
Fe1250     O1260   1.953   1_655  S
Fe1251     O1269   2.086       .  S
Fe1251     O1256   2.051       .  S
Fe1251     O1263   2.061       .  S
Fe1251     O1252   2.088       .  S
O1252      C1259   1.274       .  A
O1253      C1267   1.268       .  A
O1254      C1259   1.267       .  A
O1255      C1258   1.271       .  A
O1257      C1270   1.272       .  A
C1258      O1263   1.268       .  A
C1258      C1659   1.489       .  S
C1259      C1629   1.481       .  S
O1261      C1264   1.270       .  A
O1262      C1264   1.272       .  A
C1264      C1639   1.487       .  S
O1265      C1270   1.267       .  A
O1266      C1268   1.275   1_655  A
C1267      C1609   1.506       .  S
C1270      C1649   1.488       .  S
Fe1271     O1287   2.060       .  S
Fe1271     O1277   2.078       .  S
Fe1271     O1284   2.079       .  S
Fe1271     O1276   2.060       .  S
Fe1271     O1282   1.959       .  S
Fe1272     O1275   2.057       .  S
Fe1272     O1279   2.079       .  S
Fe1272     O1283   2.066       .  S
Fe1272     O1288   2.077       .  S
Fe1272     O1282   1.955       .  S
Fe1273     O1291   2.094       .  S
Fe1273     O1278   2.066       .  S
Fe1273     O1285   2.060       .  S
Fe1273     O1274   2.079       .  S
Fe1273     O1282   1.959       .  S
O1274      C1281   1.272       .  A
O1275      C1289   1.269       .  A
O1276      C1281   1.267       .  A
O1277      C1280   1.272       .  A
O1278      C1290   1.268       .  A
O1279      C1292   1.272       .  A
C1280      O1285   1.270       .  A
C1280      C1656   1.486       .  S
C1281      C1646   1.490       .  S
O1283      C1286   1.268       .  A
O1284      C1286   1.271       .  A
C1286      C1636   1.494       .  S
O1287      C1292   1.268       .  A
O1288      C1290   1.270       .  A
C1289      O1291   1.276       .  A
C1289      C1586   1.483       .  S
C1290      C1596   1.493       .  S
C1292      C1626   1.480       .  S
Fe1293     O1309   2.080       .  S
Fe1293     O1299   2.055       .  S
Fe1293     O1306   2.049       .  S
Fe1293     O1298   2.085       .  S
Fe1293     O1304   1.963       .  S
Fe1294     O1297   2.069       .  S
Fe1294     O1301   2.054       .  S
Fe1294     O1305   2.068       .  S
Fe1294     O1310   2.054       .  S
Fe1294     O1304   1.968       .  S
Fe1295     O1313   2.053       .  S
Fe1295     O1300   2.084       .  S
Fe1295     O1307   2.090       .  S
Fe1295     O1296   2.051       .  S
Fe1295     O1304   1.967       .  S
O1296      C1303   1.265       .  A
O1297      C1311   1.270       .  A
O1298      C1303   1.271       .  A
O1299      C1302   1.267       .  A
O1300      C1312   1.272       .  A
O1301      C1314   1.266       .  A
C1302      O1307   1.274       .  A
C1302      C1556   1.496       .  S
C1303      C1566   1.477       .  S
O1305      C1308   1.271       .  A
O1306      C1308   1.268       .  A
C1308      C1579   1.469       .  S
O1309      C1314   1.270       .  A
O1310      C1312   1.266       .  A
C1311      O1313   1.267       .  A
C1311      C1536   1.472       .  S
C1312      C1526   1.479       .  S
C1314      C1546   1.480       .  S
Fe1315     O1328   2.062       .  S
Fe1315     O1320   2.085       .  S
Fe1315     O1326   1.943       .  S
Fe1316     O1327   2.070       .  S
Fe1316     O1332   2.063       .  S
Fe1316     O1326   1.948       .  S
Fe1317     O1322   2.094       .  S
Fe1317     O1318   2.064       .  S
Fe1317     O1326   1.937       .  S
O1318      C1325   1.268       .  A
O1319      C1333   1.268       .  A
O1320      C1325   1.271       .  A
O1321      C1324   1.271       .  A
O1322      C1334   1.277       .  A
O1323      C1336   1.268       .  A
C1324      O1329   1.276       .  A
C1324      C1559   1.490       .  S
C1325      C1549   1.479       .  S
O1327      C1330   1.269       .  A
O1328      C1330   1.267       .  A
C1330      C1576   1.493       .  S
O1331      C1336   1.273       .  A
O1332      C1334   1.271       .  A
C1333      O1335   1.267       .  A
C1333      C1599   1.489       .  S
C1334      C1589   1.486       .  S
C1336      C1569   1.475       .  S
Fe1337     O1353   2.053       .  S
Fe1337     O1343   2.059       .  S
Fe1337     O1350   2.077       .  S
Fe1337     O1342   2.058       .  S
Fe1337     O1348   1.983       .  S
Fe1338     O1341   2.066       .  S
Fe1338     O1345   2.051       .  S
Fe1338     O1349   2.061       .  S
Fe1338     O1354   2.065       .  S
Fe1338     O1348   1.978       .  S
Fe1339     O1357   2.066       .  S
Fe1339     O1344   2.055       .  S
Fe1339     O1351   2.063       .  S
Fe1339     O1340   2.057       .  S
Fe1339     O1348   1.973       .  S
O1340      C1347   1.266       .  A
O1341      C1355   1.269       .  A
O1342      C1347   1.267       .  A
O1343      C1346   1.266       .  A
O1344      C1356   1.265       .  A
O1345      C1358   1.267       .  A
C1346      O1351   1.267       .  A
C1346      C1516   1.479       .  S
C1347      C1489   1.498       .  S
O1349      C1352   1.268       .  A
O1350      C1352   1.270       .  A
C1352      C1496   1.474       .  S
O1353      C1358   1.265       .  A
O1354      C1356   1.267       .  A
C1355      O1357   1.269       .  A
C1355      C1529   1.478       .  S
C1356      C1539   1.482       .  S
C1358      C1506   1.477       .  S
Fe1359     O1372   2.068       .  S
Fe1359     O1364   2.044       .  S
Fe1359     O1370   1.956       .  S
Fe1360     O1371   2.058       .  S
Fe1360     O1376   2.085       .  S
Fe1360     O1370   1.951       .  S
Fe1361     O1366   2.063       .  S
Fe1361     O1362   2.076       .  S
Fe1361     O1370   1.959       .  S
O1362      C1369   1.269       .  A
O1363      C1377   1.264       .  A
O1364      C1369   1.264       .  A
O1365      C1368   1.272       .  A
O1366      C1378   1.272       .  A
O1367      C1380   1.272       .  A
C1368      O1373   1.271       .  A
C1368      C1519   1.477       .  S
C1369      C1509   1.480       .  S
O1371      C1374   1.266       .  A
O1372      C1374   1.267       .  A
C1374      C1499   1.473       .  S
O1375      C1380   1.269       .  A
O1376      C1378   1.275       .  A
C1377      O1379   1.264       .  A
C1377      C1469   1.509       .  S
C1378      C1476   1.479       .  S
C1380      C1486   1.466       .  S
Fe1381     O1387   2.066       .  S
Fe1381     O1386   2.061       .  S
Fe1382     O1385   2.063       .  S
Fe1382     O1389   2.090       .  S
Fe1382     O1393   2.050       .  S
Fe1382     O1398   2.071       .  S
Fe1382     O1392   1.960       .  S
Fe1383     O1401   2.067       .  S
Fe1383     O1388   2.072       .  S
Fe1383     O1395   2.063       .  S
Fe1383     O1384   2.081       .  S
O1384      C1391   1.274       .  A
O1385      C1399   1.269       .  A
O1386      C1391   1.270       .  A
O1387      C1390   1.267       .  A
O1388      C1400   1.268       .  A
O1389      C1402   1.274       .  A
C1390      O1395   1.266       .  A
C1390      C1439   1.485       .  S
C1391      C1449   1.473       .  S
O1393      C1396   1.264       .  A
O1394      C1396   1.268       .  A
C1396      C1459   1.488       .  S
O1397      C1402   1.268       .  A
C1399      C1616   1.472       .  S
C1400      C1606   1.518       .  S
C1402      C1429   1.487       .  S
Fe1403     O1419   2.075       .  S
Fe1403     O1409   2.067       .  S
Fe1403     O1416   2.050       .  S
Fe1403     O1408   2.066       .  S
Fe1403     O1414   1.967       .  S
Fe1404     O1407   2.053       .  S
Fe1404     O1411   2.059       .  S
Fe1404     O1415   2.078       .  S
Fe1404     O1420   2.061       .  S
Fe1404     O1414   1.969       .  S
Fe1405     O1423   2.087       .  S
Fe1405     O1410   2.078       .  S
Fe1405     O1417   2.068       .  S
Fe1405     O1406   2.085       .  S
Fe1405     O1414   1.967       .  S
O1406      C1413   1.270       .  A
O1407      C1421   1.266       .  A
O1408      C1413   1.266       .  A
O1409      C1412   1.270       .  A
O1410      C1422   1.271       .  A
O1411      C1424   1.268       .  A
C1412      O1417   1.271       .  A
C1412      C1436   1.476       .  S
C1413      C1426   1.509       .  S
O1415      C1418   1.271       .  A
O1416      C1418   1.265       .  A
C1418      C1456   1.479       .  S
O1419      C1424   1.272       .  A
O1420      C1422   1.267       .  A
C1421      O1423   1.272       .  A
C1421      C1479   1.491       .  S
C1422      C1466   1.504       .  S
C1424      C1446   1.490       .  S
C1425      C1426   1.428       .  A
C1425      C1430   1.413       .  A
C1425     Br1432   1.936       .  S
C1426      C1427   1.424       .  A
C1427      C1428   1.411       .  A
C1427     Br1434   1.935       .  S
C1428      C1429   1.411       .  A
C1428     Br1433   1.938       .  S
C1429      C1430   1.407       .  A
C1430     Br1431   1.935       .  S
C1435      C1436   1.407       .  A
C1435      C1440   1.409       .  A
C1435     Br1442   1.931       .  S
C1436      C1437   1.410       .  A
C1437      C1438   1.407       .  A
C1437     Br1444   1.933       .  S
C1438      C1439   1.415       .  A
C1438     Br1443   1.934       .  S
C1439      C1440   1.416       .  A
C1440     Br1441   1.932       .  S
C1445      C1450   1.405       .  A
C1445     Br1452   1.937       .  S
C1446      C1447   1.418       .  A
C1447      C1448   1.412       .  A
C1447     Br1454   1.931       .  S
C1448     Br1453   1.930       .  S
C1449      C1450   1.404       .  A
C1450     Br1451   1.933       .  S
C1455      C1460   1.404       .  A
C1455     Br1462   1.937       .  S
C1456      C1457   1.409       .  A
C1457      C1458   1.412   1_565  A
C1457     Br1464   1.929       .  S
C1458     Br1463   1.934       .  S
C1459      C1460   1.417       .  A
C1460     Br1461   1.938       .  S
C1465      C1466   1.417       .  A
C1465      C1470   1.408       .  A
C1465     Br1472   1.938       .  S
C1466      C1467   1.424       .  A
C1467      C1468   1.414       .  A
C1467     Br1474   1.944       .  S
C1468      C1469   1.426       .  A
C1468     Br1473   1.943       .  S
C1469      C1470   1.423       .  A
C1470     Br1471   1.940       .  S
C1475      C1476   1.408       .  A
C1475      C1480   1.410       .  A
C1475     Br1482   1.931       .  S
C1476      C1477   1.408       .  A
C1477      C1478   1.411       .  A
C1477     Br1484   1.932       .  S
C1478      C1479   1.418       .  A
C1478     Br1483   1.934       .  S
C1479      C1480   1.417       .  A
C1480     Br1481   1.932       .  S
C1485      C1486   1.403       .  A
C1485      C1490   1.406       .  A
C1485     Br1492   1.938       .  S
C1486      C1487   1.402       .  A
C1487      C1488   1.406       .  A
C1487     Br1494   1.935       .  S
C1488      C1489   1.427       .  A
C1488     Br1493   1.936       .  S
C1489      C1490   1.428       .  A
C1490     Br1491   1.940       .  S
C1495      C1496   1.410       .  A
C1495      C1500   1.406       .  A
C1495     Br1502   1.931       .  S
C1496      C1497   1.408       .  A
C1497      C1498   1.408       .  A
C1497     Br1504   1.925       .  S
C1498      C1499   1.410       .  A
C1498     Br1503   1.930       .  S
C1499      C1500   1.409       .  A
C1500     Br1501   1.933       .  S
C1505      C1506   1.410       .  A
C1506      C1507   1.414       .  A
C1507      C1508   1.406       .  A
C1507     Br1514   1.935       .  S
C1508     Br1513   1.936       .  S
C1509      C1510   1.415       .  A
C1510     Br1511   1.935       .  S
C1515      C1516   1.413       .  A
C1516      C1517   1.412       .  A
C1517      C1518   1.407       .  A
C1517     Br1524   1.931       .  S
C1518     Br1523   1.931       .  S
C1519      C1520   1.409       .  A
C1520     Br1521   1.928       .  S
C1525      C1530   1.408       .  A
C1525     Br1532   1.930       .  S
C1526      C1527   1.412       .  A
C1527     Br1534   1.932       .  S
C1528      C1529   1.411       .  A
C1528     Br1533   1.932       .  S
C1529      C1530   1.411       .  A
C1530     Br1531   1.932       .  S
C1535      C1536   1.408       .  A
C1535      C1540   1.406       .  A
C1535     Br1542   1.934       .  S
C1536      C1537   1.408       .  A
C1537      C1538   1.407       .  A
C1537     Br1544   1.933       .  S
C1538      C1539   1.416       .  A
C1538     Br1543   1.934       .  S
C1539      C1540   1.414       .  A
C1540     Br1541   1.930       .  S
C1545      C1546   1.413       .  A
C1545      C1550   1.409       .  A
C1545     Br1552   1.933       .  S
C1546      C1547   1.410       .  A
C1547      C1548   1.409       .  A
C1547     Br1554   1.930       .  S
C1548      C1549   1.408       .  A
C1548     Br1553   1.922       .  S
C1549      C1550   1.410       .  A
C1550     Br1551   1.931       .  S
C1555      C1556   1.421       .  A
C1555      C1560   1.409       .  A
C1555     Br1562   1.936       .  S
C1556      C1557   1.417       .  A
C1557      C1558   1.410       .  A
C1557     Br1564   1.935       .  S
C1558      C1559   1.415       .  A
C1558     Br1563   1.934       .  S
C1559      C1560   1.413       .  A
C1560     Br1561   1.936       .  S
C1565      C1566   1.411       .  A
C1565      C1570   1.408       .  A
C1565     Br1572   1.932       .  S
C1567      C1568   1.410       .  A
C1567     Br1574   1.929       .  S
C1568      C1569   1.409       .  A
C1568     Br1573   1.930       .  S
C1570     Br1571   1.932       .  S
C1575      C1576   1.424       .  A
C1575     Br1582   1.936       .  S
C1576      C1577   1.426       .  A
C1577     Br1584   1.941       .  S
C1578      C1579   1.405       .  A
C1578     Br1583   1.939       .  S
C1579      C1580   1.405   1_565  A
C1580     Br1581   1.935       .  S
C1585      C1586   1.411       .  A
C1585      C1590   1.411       .  A
C1585     Br1592   1.931       .  S
C1586      C1587   1.410       .  A
C1587      C1588   1.409       .  A
C1587     Br1594   1.926       .  S
C1588      C1589   1.411       .  A
C1588     Br1593   1.929       .  S
C1589      C1590   1.413       .  A
C1590     Br1591   1.928       .  S
C1595      C1596   1.417       .  A
C1595      C1600   1.407       .  A
C1595     Br1602   1.932       .  S
C1596      C1597   1.417       .  A
C1597      C1598   1.412       .  A
C1597     Br1604   1.935       .  S
C1598      C1599   1.417       .  A
C1598     Br1603   1.936       .  S
C1599      C1600   1.413       .  A
C1600     Br1601   1.937       .  S
C1605      C1606   1.427       .  A
C1605     Br1612   1.941       .  S
C1607     Br1614   1.943       .  S
C1608     Br1613   1.940       .  S
C1609      C1610   1.418       .  A
C1610     Br1611   1.939       .  S
C1615      C1620   1.408       .  A
C1615     Br1622   1.931       .  S
C1616      C1617   1.407   1_554  A
C1617      C1618   1.407       .  A
C1617     Br1624   1.931       .  S
C1618      C1619   1.413       .  A
C1618     Br1623   1.927       .  S
C1620     Br1621   1.931       .  S
C1625      C1626   1.411       .  A
C1625      C1630   1.405       .  A
C1625     Br1632   1.930       .  S
C1626      C1627   1.411       .  A
C1627      C1628   1.410       .  A
C1627     Br1634   1.930       .  S
C1628      C1629   1.413       .  A
C1628     Br1633   1.928       .  S
C1629      C1630   1.410       .  A
C1630     Br1631   1.930       .  S
C1635      C1636   1.416       .  A
C1635      C1640   1.410       .  A
C1635     Br1642   1.933       .  S
C1636      C1637   1.418       .  A
C1637      C1638   1.411       .  A
C1637     Br1644   1.935       .  S
C1638      C1639   1.413       .  A
C1638     Br1643   1.931       .  S
C1639      C1640   1.411       .  A
C1640     Br1641   1.930       .  S
C1645      C1650   1.409   1_545  A
C1645     Br1652   1.934       .  S
C1646      C1647   1.416       .  A
C1647      C1648   1.407       .  A
C1647     Br1654   1.935       .  S
C1648     Br1653   1.932       .  S
C1649      C1650   1.415       .  A
C1650     Br1651   1.934       .  S
C1655      C1656   1.411       .  A
C1655     Br1662   1.932       .  S
C1656      C1657   1.415       .  A
C1657     Br1664   1.932       .  S
C1658      C1659   1.416       .  A
C1658     Br1663   1.937       .  S
C1659      C1660   1.415       .  A
C1660     Br1661   1.932       .  S
