geometry optimzed in LAMMPS
_audit_creation_date              2020-12-01 
_audit_creation_method            'lammps2cif' 
_symmetry_space_group_name_H-M    'P1' 
_symmetry_Int_Tables_number       1 
_symmetry_cell_setting            triclinic 
loop_ 
_symmetry_equiv_pos_as_xyz 
  x,y,z 
_cell_length_a                    46.66919795 
_cell_length_b                    46.7302128401539 
_cell_length_c                    46.5290125162666 
_cell_angle_alpha                 89.9617328255493 
_cell_angle_beta                  90.0635373569235 
_cell_angle_gamma                 90.00119441477328 
loop_ 
_atom_site_label 
_atom_site_type_symbol 
_atom_site_fract_x 
_atom_site_fract_y 
_atom_site_fract_z 
_atom_site_charge 
O1          O  0.20241086  0.79724893  0.58178348    -0.85700
O2          O  0.21502930  0.74572485  0.55662524    -0.82800
C3          C  0.20408701  0.72796663  0.57371405     0.97700
O4          O  0.17710927  0.72525960  0.57548598    -0.82800
O5          O  0.11908974  0.74058125  0.57077575    -0.85400
C6          C  0.11506779  0.75822820  0.59091842     1.02300
O7          O  0.12572751  0.78290699  0.58946804    -0.78200
O8          O  0.16463344  0.82476136  0.57826510    -0.78400
C9          C  0.18621263  0.81621613  0.59236361     1.02200
O10         O  0.19446607  0.82165167  0.52516054    -0.85700
O11         O  0.20165036  0.76666957  0.50138365    -0.82800
C12         C  0.19651265  0.74040058  0.49672220     0.97800
O13         O  0.18120034  0.72626176  0.51404922    -0.82800
O14         O  0.12647512  0.74747585  0.50947502    -0.85400
C15         C  0.10718348  0.76649438  0.50966111     1.02200
O16         O  0.10618098  0.78450933  0.53000238    -0.78200
O17         O  0.14824300  0.82360244  0.51794417    -0.78400
C18         C  0.17316836  0.83247259  0.51239899     1.02200
Cr19       Cr  0.20027465  0.78244124  0.54151218     1.93700
Cr20       Cr  0.15175631  0.73787677  0.54279183     1.93200
Cr21       Cr  0.13822440  0.80164241  0.55325412     1.39100
O22         O  0.16336031  0.77402493  0.54564330    -1.23500
O23         O  0.33172966  0.89959651  0.79077539    -0.85700
O24         O  0.27469442  0.89612196  0.78036332    -0.82800
C25         C  0.24798328  0.89772825  0.78295792     0.97700
O26         O  0.23694833  0.91403192  0.80189232    -0.82800
O27         O  0.25382279  0.89444082  0.85610187    -0.85400
C28         C  0.27063725  0.88692066  0.87593737     1.02300
O29         O  0.29397273  0.90024477  0.87987751    -0.78200
O30         O  0.32606337  0.88271308  0.83423050    -0.78400
C31         C  0.33448610  0.87932000  0.80876759     1.02200
O32         O  0.32585745  0.96155309  0.79416452    -0.85700
O33         O  0.26845913  0.95724815  0.77772428    -0.82800
C34         C  0.25348278  0.97426209  0.79282442     0.97800
O35         O  0.25267148  0.97098719  0.81967249    -0.82800
O36         O  0.26649621  0.95296607  0.87455894    -0.85400
C37         C  0.28979902  0.96578627  0.88084278     1.02200
O38         O  0.31305915  0.95837371  0.86931612    -0.78200
O39         O  0.35038261  0.93959495  0.82761494    -0.78400
C40         C  0.34884783  0.95852976  0.80805673     1.02200
Cr41       Cr  0.29961892  0.92879307  0.78865981     1.93700
Cr42       Cr  0.25525308  0.93259526  0.83733401     1.93200
Cr43       Cr  0.31876740  0.92082427  0.85087420     1.39100
O44         O  0.29109703  0.92756867  0.82567374    -1.23500
O45         O  0.41270518  0.68057161  0.65339200    -0.85700
O46         O  0.41052436  0.69289181  0.71016559    -0.82800
C47         C  0.41347470  0.69176041  0.73693395     0.97700
O48         O  0.42990618  0.67295596  0.74800500    -0.82800
O49         O  0.40986404  0.61879572  0.73256506    -0.85400
C50         C  0.40300959  0.59767431  0.71717323     1.02300
O51         O  0.41641367  0.59291110  0.69394219    -0.78200
O52         O  0.39746986  0.63685301  0.66011785    -0.78400
C53         C  0.39258559  0.66216623  0.65236140     1.02200
O54         O  0.47537294  0.67842505  0.65851101    -0.85700
O55         O  0.47208464  0.69611947  0.71560324    -0.82800
C56         C  0.48945780  0.68105290  0.73035587     0.97800
O57         O  0.48640993  0.65432881  0.73080615    -0.82800
O58         O  0.46849695  0.59981759  0.72018235    -0.85400
C59         C  0.48109109  0.59277297  0.69693633     1.02200
O60         O  0.47381072  0.60404478  0.67347305    -0.78200
O61         O  0.45416663  0.64379152  0.63502390    -0.78400
C62         C  0.47328528  0.66309859  0.63637514     1.02200
Cr63       Cr  0.44287450  0.68424430  0.68487859     1.93700
Cr64       Cr  0.44804598  0.63710008  0.73028198     1.93200
Cr65       Cr  0.43594475  0.62139840  0.66753917     1.39100
O66         O  0.44235851  0.64757538  0.69427929    -1.23500
O67         O  0.83526852  0.56622474  0.18764293    -0.85700
O68         O  0.77967666  0.57086346  0.20285668    -0.82800
C69         C  0.75282673  0.57075020  0.20174577     0.97700
O70         O  0.73983963  0.55455218  0.18400704    -0.82800
O71         O  0.75423774  0.57343482  0.12937903    -0.85400
C72         C  0.76908179  0.57929056  0.10756384     1.02300
O73         O  0.79064578  0.56390001  0.10156948    -0.78200
O74         O  0.82626677  0.58194126  0.14433070    -0.78400
C75         C  0.83681784  0.58599459  0.16881401     1.02200
O76         O  0.82714478  0.50375203  0.18602750    -0.85700
O77         O  0.77192233  0.51003043  0.20642114    -0.82800
C78         C  0.75568280  0.49327589  0.19234980     0.97800
O79         O  0.75211141  0.49697710  0.16576624    -0.82800
O80         O  0.76274594  0.51382868  0.10988295    -0.85400
C81         C  0.78530057  0.50041654  0.10206651     1.02200
O82         O  0.80891284  0.50597984  0.11379147    -0.78200
O83         O  0.85006202  0.52507354  0.15115043    -0.78400
C84         C  0.84879339  0.50556175  0.17009069     1.02200
Cr85       Cr  0.80279581  0.53756850  0.19305776     1.93700
Cr86       Cr  0.75486201  0.53504515  0.14774879     1.93200
Cr87       Cr  0.81714999  0.54377831  0.12967107     1.39100
O88         O  0.79144338  0.53862688  0.15691217    -1.23500
O89         O  0.71127221  0.67358977  0.40258698    -0.85700
O90         O  0.72287901  0.72317926  0.43221243    -0.82800
C91         C  0.71168371  0.74279083  0.41735871     0.97700
O92         O  0.68471174  0.74448122  0.41505586    -0.82800
O93         O  0.62773943  0.72605407  0.41668312    -0.85400
C94         C  0.62464489  0.70975643  0.39509080     1.02300
O95         O  0.63563918  0.68515425  0.39550429    -0.78200
O96         O  0.67550057  0.64336358  0.40559735    -0.78400
C97         C  0.69650085  0.65360841  0.39187458     1.02200
O98         O  0.70428896  0.64409898  0.45666088    -0.85700
O99         O  0.71046543  0.69685601  0.48508205    -0.82800
C100        C  0.70458654  0.72244011  0.49202897     0.97800
O101        O  0.68847180  0.73764503  0.47631029    -0.82800
O102        O  0.63480273  0.71482987  0.47801534    -0.85400
C103        C  0.61608883  0.69546825  0.47603130     1.02200
O104        O  0.61487092  0.67995718  0.45381048    -0.78200
O105        O  0.65824162  0.64167324  0.46513702    -0.78400
C106        C  0.68320871  0.63191268  0.46853229     1.02200
Cr107      Cr  0.70924880  0.68478336  0.44383926     1.93700
Cr108      Cr  0.65965787  0.72794285  0.44595452     1.93200
Cr109      Cr  0.64793700  0.66481023  0.43082363     1.39100
O110        O  0.67225613  0.69255821  0.44033261    -1.23500
O111        O  0.91050843  0.78220260  0.31965594    -0.85700
O112        O  0.91071101  0.77181703  0.26224398    -0.82800
C113        C  0.91526088  0.77371779  0.23573785     0.97700
O114        O  0.93389702  0.79114664  0.22632358    -0.82800
O115        O  0.91446525  0.84466323  0.24271438    -0.85400
C116        C  0.90691176  0.86500376  0.25877100     1.02300
O117        O  0.92075325  0.86989677  0.28177247    -0.78200
O118        O  0.89890563  0.82716921  0.31431933    -0.78400
C119        C  0.89212141  0.80228660  0.32174176     1.02200
O120        O  0.97350469  0.78054157  0.31848912    -0.85700
O121        O  0.97246104  0.76542504  0.26044367    -0.82800
C122        C  0.99147469  0.77992440  0.24723092     0.97800
O123        O  0.98965887  0.80680978  0.24706251    -0.82800
O124        O  0.97296643  0.86191034  0.25795626    -0.85400
C125        C  0.98636771  0.86633186  0.28137722     1.02200
O126        O  0.97729084  0.85538141  0.30432500    -0.78200
O127        O  0.95360176  0.81633558  0.34130476    -0.78400
C128        C  0.97149673  0.79589200  0.34068448     1.02200
Cr129      Cr  0.94213769  0.77765010  0.28980526     1.93700
Cr130      Cr  0.95203631  0.82556270  0.24605778     1.93200
Cr131      Cr  0.93820181  0.84032469  0.30847490     1.39100
O132        O  0.94423540  0.81443163  0.28148413    -1.23500
O133        O  0.58193562  0.18074645  0.82834496    -0.85700
O134        O  0.58568155  0.19429654  0.77181207    -0.82800
C135        C  0.58346432  0.19420017  0.74495113     0.97700
O136        O  0.56699796  0.17609411  0.73294393    -0.82800
O137        O  0.58749596  0.12246718  0.74761517    -0.85400
C138        C  0.59515114  0.10179744  0.76316451     1.02300
O139        O  0.58010144  0.09490447  0.78485294    -0.78200
O140        O  0.59700107  0.13720549  0.82089298    -0.78400
C141        C  0.60143413  0.16177180  0.83070124     1.02200
O142        O  0.51972963  0.17934026  0.82174861    -0.85700
O143        O  0.52408498  0.19780348  0.76489394    -0.82800
C144        C  0.50734069  0.18300223  0.74912673     0.97800
O145        O  0.51050504  0.15630770  0.74797484    -0.82800
O146        O  0.52890672  0.10156867  0.75749801    -0.85400
C147        C  0.51434070  0.09530550  0.77978265     1.02200
O148        O  0.52144321  0.10524415  0.80385258    -0.78200
O149        O  0.53976157  0.14353377  0.84429705    -0.78400
C150        C  0.52104839  0.16333098  0.84345144     1.02200
Cr151      Cr  0.55268927  0.18535084  0.79605685     1.93700
Cr152      Cr  0.54895735  0.13957438  0.74912702     1.93200
Cr153      Cr  0.55907162  0.12210608  0.81162634     1.39100
O154        O  0.55338229  0.14904242  0.78561599    -1.23500
O155        O  0.79689523  0.31390311  0.90774993    -0.85700
O156        O  0.78681690  0.25684715  0.90635460    -0.82800
C157        C  0.78912906  0.23029548  0.90947434     0.97700
O158        O  0.80763176  0.22010689  0.92671010    -0.82800
O159        O  0.86070521  0.23741207  0.90592551    -0.85400
C160        C  0.88132915  0.25330353  0.89883251     1.02300
O161        O  0.88577232  0.27645855  0.91244097    -0.78200
O162        O  0.84102575  0.30857494  0.89293183    -0.78400
C163        C  0.81567908  0.31609257  0.88804950     1.02200
O164        O  0.79836418  0.31003323  0.97043680    -0.85700
O165        O  0.78338179  0.25294552  0.96825927    -0.82800
C166        C  0.79873511  0.23924829  0.98625384     0.97800
O167        O  0.82542700  0.23825794  0.98281249    -0.82800
O168        O  0.87951515  0.25112549  0.96443757    -0.85400
C169        C  0.88434579  0.27432880  0.97793380     1.02200
O170        O  0.87310277  0.29730221  0.96957897    -0.78200
O171        O  0.83229409  0.33421826  0.94904961    -0.78400
C172        C  0.81274945  0.33263646  0.96804975     1.02200
Cr173      Cr  0.79408032  0.28295770  0.93834219     1.93700
Cr174      Cr  0.84267156  0.23932301  0.94432731     1.93200
Cr175      Cr  0.85623140  0.30218924  0.93153877     1.39100
O176        O  0.83096516  0.27479513  0.93825147    -1.23500
O177        O  0.66564872  0.40431342  0.69060625    -0.85700
O178        O  0.72116290  0.40086591  0.70464740    -0.82800
C179        C  0.74763014  0.39809368  0.70126909     0.97700
O180        O  0.76052915  0.41143289  0.68121307    -0.82800
O181        O  0.74294264  0.38984354  0.62914869    -0.85400
C182        C  0.72676131  0.38247337  0.60884431     1.02300
O183        O  0.70561517  0.39811768  0.60234663    -0.78200
O184        O  0.67263303  0.38403755  0.64886090    -0.78400
C185        C  0.66357924  0.38248631  0.67427889     1.02200
O186        O  0.67415844  0.46646852  0.68182781    -0.85700
O187        O  0.73052612  0.46124325  0.70124427    -0.82800
C188        C  0.74778628  0.47505060  0.68530688     0.97800
O189        O  0.75017757  0.46845965  0.65921362    -0.82800
O190        O  0.73501045  0.44862385  0.60624958    -0.85400
C191        C  0.71240070  0.46228675  0.59898601     1.02200
O192        O  0.68857387  0.45641486  0.61021644    -0.78200
O193        O  0.64927612  0.44103561  0.65138996    -0.78400
C194        C  0.65138000  0.46246771  0.66793879     1.02200
Cr195      Cr  0.69846929  0.43320663  0.69178733     1.93700
Cr196      Cr  0.74447838  0.42934850  0.64456835     1.93200
Cr197      Cr  0.68102552  0.42050753  0.63009007     1.39100
O198        O  0.70825061  0.42794313  0.65554939    -1.23500
O199        O  0.29855972  0.14832676  0.08578802    -0.85700
O200        O  0.28815484  0.20557502  0.08500629    -0.82800
C201        C  0.29087929  0.23197273  0.08071331     0.97700
O202        O  0.30983522  0.24112656  0.06345108    -0.82800
O203        O  0.36362835  0.22384421  0.08367926    -0.85400
C204        C  0.38411363  0.20762829  0.09064412     1.02300
O205        O  0.38767167  0.18423451  0.07735360    -0.78200
O206        O  0.34335753  0.15323796  0.09912771    -0.78400
C207        C  0.31777812  0.14731521  0.10519832     1.02200
O208        O  0.29895845  0.14923856  0.02264506    -0.85700
O209        O  0.28409312  0.20697234  0.02302033    -0.82800
C210        C  0.29924036  0.22061687  0.00482063     0.97800
O211        O  0.32601293  0.22129418  0.00781427    -0.82800
O212        O  0.38062529  0.20856992  0.02529132    -0.85400
C213        C  0.38535671  0.18516254  0.01213771     1.02200
O214        O  0.37381217  0.16238767  0.02086270    -0.78200
O215        O  0.33362753  0.12599691  0.04390914    -0.78400
C216        C  0.31383035  0.12686513  0.02520184     1.02200
Cr217      Cr  0.29523723  0.17790075  0.05387682     1.93700
Cr218      Cr  0.34428331  0.22104004  0.04584301     1.93200
Cr219      Cr  0.35767768  0.15842932  0.05976547     1.39100
O220        O  0.33230597  0.18583386  0.05307283    -1.23500
O221        O  0.08326216  0.28485072  0.15757831    -0.85700
O222        O  0.08778621  0.27400680  0.21483974    -0.82800
C223        C  0.08546129  0.27557843  0.24163132     0.97700
O224        O  0.06834982  0.29353626  0.25285693    -0.82800
O225        O  0.08881567  0.34681382  0.23587764    -0.85400
C226        C  0.09573763  0.36710889  0.21945593     1.02300
O227        O  0.08090112  0.37248108  0.19724202    -0.78200
O228        O  0.09853995  0.32868964  0.16307204    -0.78400
C229        C  0.10250222  0.30378218  0.15382187     1.02200
O230        O  0.02138176  0.28629272  0.16471466    -0.85700
O231        O  0.02598148  0.27023476  0.22135391    -0.82800
C232        C  0.00806522  0.28536937  0.23531518     0.97800
O233        O  0.01170350  0.31200546  0.23715667    -0.82800
O234        O  0.03000219  0.36666526  0.22505506    -0.85400
C235        C  0.01666562  0.37312550  0.20202537     1.02200
O236        O  0.02264398  0.36058922  0.17893626    -0.78200
O237        O  0.04124301  0.32093734  0.14028234    -0.78400
C238        C  0.02232489  0.30152275  0.14248468     1.02200
Cr239      Cr  0.05455142  0.28150876  0.19021973     1.93700
Cr240      Cr  0.05021156  0.32915310  0.23515014     1.93200
Cr241      Cr  0.06036592  0.34384056  0.17185611     1.39100
O242        O  0.05488882  0.31815121  0.19909869    -1.23500
O243        O  0.18709970  0.07635210  0.28687037    -0.85700
O244        O  0.24003643  0.05328661  0.27852523    -0.82800
C245        C  0.25605491  0.07019847  0.29227514     0.97700
O246        O  0.25659123  0.07003188  0.31949526    -0.82800
O247        O  0.23603584  0.06165962  0.37541687    -0.85400
C248        C  0.21877632  0.08235411  0.37767813     1.02300
O249        O  0.19547021  0.08197677  0.36408311    -0.78200
O250        O  0.15638937  0.07092564  0.32185259    -0.78400
C251        C  0.16659434  0.08590524  0.30171544     1.02200
O252        O  0.16292497  0.01917736  0.29074649    -0.85700
O253        O  0.21869008  0.99690511  0.28718026    -0.82800
C254        C  0.24448665  0.99234873  0.29444947     0.97800
O255        O  0.25714287  0.00948529  0.31118262    -0.82800
O256        O  0.23031202  0.00140635  0.36312692    -0.85400
C257        C  0.20994443  0.00143416  0.38098585     1.02200
O258        O  0.19297180  0.02252379  0.38234505    -0.78200
O259        O  0.15726540  0.01107071  0.33671849    -0.78400
C260        C  0.15035375  0.00608480  0.31093947     1.02200
Cr261      Cr  0.20230511  0.03655008  0.28881238     1.93700
Cr262      Cr  0.24229353  0.03595894  0.34130554     1.93200
Cr263      Cr  0.17785744  0.04607596  0.34950027     1.39100
O264        O  0.20740265  0.03931983  0.32649259    -1.23500
O265        O  0.02128746  0.10704399  0.67845544    -0.85700
O266        O  0.03816018  0.14586430  0.63783063    -0.82800
C267        C  0.01759466  0.16344354  0.63979481     0.97700
O268        O  0.01540111  0.17881397  0.66190970    -0.82800
O269        O  0.02120401  0.19779934  0.71854238    -0.85400
C270        C  0.00649385  0.18234484  0.73557094     1.02300
O271        O  0.01214690  0.15615958  0.73803901    -0.78200
O272        O  0.03046647  0.10250276  0.72455801    -0.78400
C273        C  0.01534714  0.09637657  0.70256480     1.02200
O274        O  0.07981434  0.09644574  0.69497696    -0.85700
O275        O  0.09544204  0.14113386  0.65982836    -0.82800
C276        C  0.09819163  0.16633952  0.65058979     0.97800
O277        O  0.07770844  0.18412503  0.65366682    -0.82800
O278        O  0.08212394  0.19871031  0.70973901    -0.85400
C279        C  0.08327338  0.19589758  0.73654669     1.02200
O280        O  0.06911552  0.17625667  0.74898843    -0.78200
O281        O  0.08983884  0.12346474  0.73184344    -0.78400
C282        C  0.09578179  0.10233353  0.71618838     1.02200
Cr283      Cr  0.05824831  0.12453836  0.66978737     1.93700
Cr284      Cr  0.04911148  0.18706682  0.68656002     1.93200
Cr285      Cr  0.05076047  0.14021373  0.73310453     1.39100
O286        O  0.05264048  0.15076302  0.69664796    -1.23500
O287        O  0.19196384  0.45699167  0.87395492    -0.85700
O288        O  0.15025932  0.44113976  0.83549988    -0.82800
C289        C  0.15247129  0.46080996  0.81679384     0.97700
O290        O  0.17434801  0.46164704  0.80103517    -0.82800
O291        O  0.23001763  0.45422944  0.78158477    -0.85400
C292        C  0.24715544  0.46929773  0.79651433     1.02300
O293        O  0.25031458  0.46398455  0.82283205    -0.78200
O294        O  0.23777257  0.44666552  0.87762125    -0.78400
C295        C  0.21636906  0.46234944  0.88419074     1.02200
O296        O  0.20686904  0.39757142  0.88443219    -0.85700
O297        O  0.17045774  0.38278587  0.84063617    -0.82800
C298        C  0.16111358  0.37991738  0.81539030     0.97800
O299        O  0.16434167  0.40006674  0.79728515    -0.82800
O300        O  0.21985002  0.39351562  0.78222798    -0.85400
C301        C  0.24659567  0.39188455  0.78431499     1.02200
O302        O  0.25973720  0.40639652  0.80333714    -0.78200
O303        O  0.24322022  0.38702062  0.85696022    -0.78400
C304        C  0.22739603  0.38098812  0.87799427     1.02200
Cr305      Cr  0.18186126  0.41999923  0.85668139     1.93700
Cr306      Cr  0.19784689  0.42735449  0.79338891     1.93200
Cr307      Cr  0.24498768  0.42574620  0.83965002     1.39100
O308        O  0.20835873  0.42448213  0.82979933    -1.23500
O309        O  0.37606451  0.29703892  0.51520204    -0.85700
O310        O  0.33805696  0.33647210  0.53573204    -0.82800
C311        C  0.31959224  0.33602460  0.51574830     0.97700
O312        O  0.30384231  0.31432705  0.51266190    -0.82800
O313        O  0.28385806  0.25813037  0.51651205    -0.85400
C314        C  0.29796933  0.24180216  0.49989889     1.02300
O315        O  0.32457021  0.23882028  0.50337445    -0.78200
O316        O  0.37938977  0.25040366  0.52096142    -0.78400
C317        C  0.38515186  0.27309296  0.50684868     1.02200
O318        O  0.38768115  0.27657281  0.57222915    -0.85700
O319        O  0.34411010  0.31033197  0.59183786    -0.82800
C320        C  0.31910544  0.31962909  0.59570803     0.97800
O321        O  0.30115337  0.31943998  0.57513708    -0.82800
O322        O  0.28618089  0.26362407  0.57770147    -0.85400
C323        C  0.28760320  0.23684106  0.57637436     1.02200
O324        O  0.30626459  0.22484588  0.56054367    -0.78200
O325        O  0.36031946  0.23972333  0.58065945    -0.78400
C326        C  0.38173848  0.25479370  0.58722130     1.02200
Cr327      Cr  0.35954777  0.30326853  0.55325789     1.93700
Cr328      Cr  0.29647435  0.28823582  0.54530259     1.93200
Cr329      Cr  0.34222605  0.24107812  0.54193488     1.39100
O330        O  0.33266418  0.27738239  0.54652100    -1.23500
O331        O  0.68295358  0.00659889  0.11308662    -0.85700
O332        O  0.64628577  0.02316093  0.15633827    -0.82800
C333        C  0.64856614  0.00302386  0.17453537     0.97700
O334        O  0.67131208  0.00028052  0.18887815    -0.82800
O335        O  0.72893374  0.00282692  0.20290551    -0.85400
C336        C  0.74301491  0.98635495  0.18639691     1.02300
O337        O  0.74366261  0.99148550  0.15981197    -0.78200
O338        O  0.72899066  0.01324094  0.10651248    -0.78400
C339        C  0.70563659  0.00086941  0.09962395     1.02200
O340        O  0.70174442  0.06508598  0.10504821    -0.85700
O341        O  0.66975485  0.08037460  0.15178817    -0.82800
C342        C  0.66351152  0.08314905  0.17794657     0.97800
O343        O  0.66680514  0.06226954  0.19512061    -0.82800
O344        O  0.72409085  0.06431040  0.20353062    -0.85400
C345        C  0.75062295  0.06295855  0.19966188     1.02200
O346        O  0.76081016  0.04691864  0.18021780    -0.78200
O347        O  0.74144558  0.07048325  0.12950935    -0.78400
C348        C  0.72433353  0.07916474  0.11048423     1.02200
Cr349      Cr  0.67727308  0.04311936  0.13338383     1.93700
Cr350      Cr  0.69822589  0.03243555  0.19477347     1.93200
Cr351      Cr  0.74096926  0.03092096  0.14477328     1.39100
O352        O  0.70549100  0.03523854  0.15765401    -1.23500
O353        O  0.88688331  0.18035098  0.44881200    -0.85700
O354        O  0.84495645  0.14095711  0.46201023    -0.82800
C355        C  0.82000636  0.13174434  0.46724826     0.97700
O356        O  0.79867735  0.14281299  0.45460417    -0.82800
O357        O  0.79013498  0.19751724  0.47685662    -0.85400
C358        C  0.79531811  0.22367526  0.48162578     1.02300
O359        O  0.81119464  0.23777258  0.46485938    -0.78200
O360        O  0.86528219  0.21530018  0.47138604    -0.78400
C361        C  0.88493603  0.19673596  0.47036695     1.02200
O362        O  0.86675330  0.18158222  0.38967874    -0.85700
O363        O  0.82864242  0.13851631  0.40259448    -0.82800
C364        C  0.80794260  0.14714016  0.38749514     0.97800
O365        O  0.79173367  0.16651064  0.39708225    -0.82800
O366        O  0.77881460  0.21822973  0.42050701    -0.85400
C367        C  0.79083460  0.23640371  0.40448069     1.02200
O368        O  0.81781422  0.23910319  0.40416270    -0.78200
O369        O  0.87483435  0.22264866  0.41044953    -0.78400
C370        C  0.87753787  0.20635371  0.38895432     1.02200
Cr371      Cr  0.85490558  0.16254875  0.42634417     1.93700
Cr372      Cr  0.79275723  0.18161862  0.43705593     1.93200
Cr373      Cr  0.84152654  0.22585796  0.43740661     1.39100
O374        O  0.82965425  0.18997390  0.43382925    -1.23500
O375        O  0.52252475  0.36060407  0.30396007    -0.85700
O376        O  0.54075807  0.32305188  0.34472324    -0.82800
C377        C  0.52262782  0.30285415  0.34291774     0.97700
O378        O  0.52209218  0.28728673  0.32081145    -0.82800
O379        O  0.53129956  0.26830613  0.26494417    -0.85400
C380        C  0.51450805  0.28175463  0.24815589     1.02300
O381        O  0.51653662  0.30851838  0.24573847    -0.78200
O382        O  0.53122367  0.36427351  0.25760983    -0.78400
C383        C  0.51569104  0.36985954  0.27952101     1.02200
O384        O  0.58078909  0.37381385  0.28747361    -0.85700
O385        O  0.59885388  0.33147099  0.32376189    -0.82800
C386        C  0.60325973  0.30654518  0.33305539     0.97800
O387        O  0.58324686  0.28828189  0.33146431    -0.82800
O388        O  0.59205236  0.27603284  0.27593716    -0.85400
C389        C  0.59070267  0.27418837  0.24917287     1.02200
O390        O  0.57488429  0.29159962  0.23527397    -0.78200
O391        O  0.59193874  0.34658798  0.25097711    -0.78400
C392        C  0.59740396  0.36771088  0.26683487     1.02200
Cr393      Cr  0.56043648  0.34542464  0.31317830     1.93700
Cr394      Cr  0.55691740  0.28245153  0.29752611     1.93200
Cr395      Cr  0.55406755  0.32751026  0.24998159     1.39100
O396        O  0.55659494  0.31849428  0.28683192    -1.23500
O397        O  0.13007241  0.66605709  0.01704843    -0.85700
O398        O  0.17010349  0.62831684  0.03814653    -0.82800
C399        C  0.19024782  0.62947276  0.01978389     0.97700
O400        O  0.20447462  0.65221861  0.01706148    -0.82800
O401        O  0.22025710  0.70970458  0.02046124    -0.85400
C402        C  0.20526162  0.72411490  0.00271607     1.02300
O403        O  0.17850945  0.72555872  0.00582190    -0.78200
O404        O  0.12394211  0.71216814  0.02293740    -0.78400
C405        C  0.11834627  0.68913252  0.00939458     1.02200
O406        O  0.11663406  0.68604370  0.07412523    -0.85700
O407        O  0.16105995  0.65415001  0.09436470    -0.82800
C408        C  0.18639917  0.64656833  0.09945018     0.97800
O409        O  0.20516339  0.64789856  0.07969861    -0.82800
O410        O  0.21577969  0.70422327  0.08224914    -0.85400
C411        C  0.21308473  0.73082176  0.08056447     1.02200
O412        O  0.19526183  0.74174581  0.06305844    -0.78200
O413        O  0.14209690  0.72439982  0.08229080    -0.78400
C414        C  0.12127592  0.70852046  0.08865514     1.02200
Cr415      Cr  0.14633744  0.66050535  0.05540742     1.93700
Cr416      Cr  0.20872611  0.67906390  0.04955944     1.93200
Cr417      Cr  0.16057088  0.72336101  0.04402829     1.39100
O418        O  0.17193360  0.68767635  0.04928797    -1.23500
O419        O  0.45945581  0.87213589  0.19312344    -0.85700
O420        O  0.47498686  0.83028683  0.15453363    -0.82800
C421        C  0.48140730  0.80552353  0.14576214     0.97700
O422        O  0.46912109  0.78391776  0.15647976    -0.82800
O423        O  0.49009958  0.77806943  0.21263961    -0.85400
C424        C  0.49337518  0.78321591  0.23914243     1.02300
O425        O  0.47502998  0.79776607  0.25273235    -0.78200
O426        O  0.47954136  0.85223563  0.23071758    -0.78400
C427        C  0.47954814  0.87131821  0.21141809     1.02200
O428        O  0.40091272  0.85168895  0.19137100    -0.85700
O429        O  0.41585145  0.81240172  0.15050055    -0.82800
C430        C  0.40241825  0.79024489  0.15833423     0.97800
O431        O  0.41206932  0.77460552  0.17823593    -0.82800
O432        O  0.43416191  0.76315972  0.23142113    -0.85400
C433        C  0.41558084  0.77394164  0.24780683     1.02200
O434        O  0.41353283  0.80088199  0.25041715    -0.78200
O435        O  0.41785158  0.85866391  0.23462876    -0.78400
C436        C  0.39824234  0.86222744  0.21616702     1.02200
Cr437      Cr  0.43842117  0.83958383  0.17473528     1.93700
Cr438      Cr  0.45100385  0.77799143  0.19510378     1.93200
Cr439      Cr  0.44630293  0.82661717  0.23924231     1.39100
O440        O  0.44530024  0.81476039  0.20298149    -1.23500
O441        O  0.30435311  0.52358365  0.38208478    -0.85700
O442        O  0.34212429  0.51097907  0.33847345    -0.82800
C443        C  0.35017829  0.50524732  0.31320538     0.97700
O444        O  0.33800273  0.51716552  0.29203238    -0.82800
O445        O  0.28265535  0.49407490  0.28726425    -0.85400
C446        C  0.25640509  0.48998171  0.29289096     1.02300
O447        O  0.24304911  0.50726072  0.30891390    -0.78200
O448        O  0.26754538  0.50190102  0.36230234    -0.78400
C449        C  0.28723876  0.50256746  0.38093413     1.02200
O450        O  0.30203013  0.58267992  0.36184514    -0.85700
O451        O  0.34249056  0.57069397  0.32159234    -0.82800
C452        C  0.33298694  0.58426900  0.30009184     0.97800
O453        O  0.31343799  0.57367113  0.28466662    -0.82800
O454        O  0.26118494  0.54944172  0.27523991    -0.85400
C455        C  0.24459509  0.56692953  0.28740385     1.02200
O456        O  0.24319523  0.56835935  0.31452280    -0.78200
O457        O  0.26099743  0.56253396  0.37155585    -0.78400
C458        C  0.27792260  0.58349397  0.37396573     1.02200
Cr459      Cr  0.32050196  0.54628874  0.34915436     1.96100
Cr460      Cr  0.29862109  0.53385162  0.28782768     1.93200
Cr461      Cr  0.25649683  0.53530830  0.33842491     1.39100
O462        O  0.29199335  0.53825923  0.32513238    -1.23500
O463        O  0.62264933  0.79980693  0.96359102    -0.85700
O464        O  0.66284129  0.83633050  0.94123056    -0.82800
C465        C  0.68188688  0.83564775  0.96070838     0.97700
O466        O  0.69644633  0.81321327  0.96441347    -0.82800
O467        O  0.71302791  0.75569846  0.96310885    -0.85400
C468        C  0.69815852  0.74134597  0.98094966     1.02300
O469        O  0.67136748  0.74005294  0.97791304    -0.78200
O470        O  0.61670906  0.75328535  0.96040157    -0.78400
C471        C  0.61143405  0.77707601  0.97279246     1.02200
O472        O  0.60974700  0.77741135  0.90708777    -0.85700
O473        O  0.65448703  0.80869013  0.88630323    -0.82800
C474        C  0.67992630  0.81588130  0.88126089     0.97800
O475        O  0.69837153  0.81523263  0.90142815    -0.82800
O476        O  0.70958421  0.75852081  0.90132680    -0.85400
C477        C  0.70687723  0.73198952  0.90443426     1.02200
O478        O  0.68816837  0.72192084  0.92152499    -0.78200
O479        O  0.63465387  0.73840265  0.90127014    -0.78400
C480        C  0.61426125  0.75432858  0.89352380     1.02200
Cr481      Cr  0.63929840  0.80356602  0.92517507     1.93700
Cr482      Cr  0.70161499  0.78520147  0.93283502     1.93200
Cr483      Cr  0.65329796  0.74106598  0.93957850     1.39100
O484        O  0.66479445  0.77651494  0.93276704    -1.23500
O485        O  0.80634869  0.94380337  0.60385887    -0.85700
O486        O  0.84198477  0.95619140  0.64915029    -0.82800
C487        C  0.84896726  0.96164611  0.67480874     0.97700
O488        O  0.83640510  0.94916030  0.69530478    -0.82800
O489        O  0.78115797  0.97270305  0.69767731    -0.85400
C490        C  0.75529429  0.97706034  0.69065230     1.02300
O491        O  0.74243134  0.95983910  0.67415016    -0.78200
O492        O  0.76835437  0.96480804  0.62160960    -0.78400
C493        C  0.78885689  0.96457721  0.60386417     1.02200
O494        O  0.80342096  0.88430911  0.62406594    -0.85700
O495        O  0.84220380  0.89674328  0.66609049    -0.82800
C496        C  0.83234641  0.88316710  0.68744381     0.97800
O497        O  0.81145520  0.89309733  0.70146226    -0.82800
O498        O  0.75888326  0.91782370  0.70912381    -0.85400
C499        C  0.74289232  0.90020220  0.69643031     1.02200
O500        O  0.74254313  0.89861369  0.66929131    -0.78200
O501        O  0.76232348  0.90366755  0.61313880    -0.78400
C502        C  0.77942151  0.88275817  0.61169610     1.02200
Cr503      Cr  0.82111078  0.92089648  0.63747014     1.93700
Cr504      Cr  0.79683693  0.93292649  0.69782484     1.93200
Cr505      Cr  0.75667163  0.93145492  0.64553387     1.39100
O506        O  0.79163355  0.92866774  0.66025584    -1.23500
O507        O  0.97696930  0.60712964  0.80835210    -0.85700
O508        O  0.95749298  0.64612927  0.84705613    -0.82800
C509        C  0.97743334  0.66456627  0.84549496     0.97700
O510        O  0.97888957  0.68083985  0.82400665    -0.82800
O511        O  0.97582986  0.69911447  0.76767435    -0.85400
C512        C  0.99368317  0.68435266  0.75329098     1.02300
O513        O  0.99020483  0.65776501  0.75108240    -0.78200
O514        O  0.97226232  0.60301194  0.76162968    -0.78400
C515        C  0.98527147  0.59664369  0.78490388     1.02200
O516        O  0.91946073  0.59639722  0.78744452    -0.85700
O517        O  0.90075948  0.63983243  0.82168932    -0.82800
C518        C  0.89654239  0.66488034  0.83063174     0.97800
O519        O  0.91663498  0.68317188  0.82910022    -0.82800
O520        O  0.91413369  0.69586572  0.77244512    -0.85400
C521        C  0.91682057  0.69458898  0.74568012     1.02200
O522        O  0.93381451  0.67652175  0.73437418    -0.78200
O523        O  0.91343744  0.62259075  0.74906486    -0.78400
C524        C  0.90578210  0.60178160  0.76449884     1.02200
Cr525      Cr  0.93914657  0.62427066  0.81423136     1.93700
Cr526      Cr  0.94648456  0.68705304  0.79772401     1.93200
Cr527      Cr  0.95179708  0.64049693  0.75167753     1.39100
O528        O  0.94595457  0.65060829  0.78781498    -1.23500
C529        C  0.85738216  0.81655703  0.72823498    -0.11800
C530        C  0.86627143  0.79897125  0.70543836     0.14800
C531        C  0.86395257  0.80932579  0.67701672     0.01700
C532        C  0.85373993  0.83708194  0.67211874    -0.16100
C533        C  0.84492933  0.85485454  0.69485107    -0.10900
C534        C  0.84698080  0.84434086  0.72331799     0.08400
C535        C  0.87902437  0.77054681  0.71212680     0.09400
S536        S  0.87329224  0.78812713  0.64600279    -0.25200
H537        H  0.85184752  0.84456017  0.65013400     0.19700
S538        S  0.83807470  0.86566670  0.75430710    -0.30900
H539        H  0.85930813  0.80883367  0.75012559     0.10000
C540        C  0.90864350  0.76536714  0.70891764     0.03200
C541        C  0.92006171  0.73866413  0.71687393    -0.13200
C542        C  0.90260242  0.71722122  0.72870552    -0.08900
C543        C  0.87282291  0.72216097  0.73106416     0.06700
C544        C  0.86136584  0.74865785  0.72273751    -0.14000
S545        S  0.93240054  0.79361297  0.69737991    -0.30900
H546        H  0.94298685  0.73535078  0.71615934     0.10900
S547        S  0.84862054  0.69584008  0.74573618    -0.28000
H548        H  0.83858556  0.75247417  0.72510521     0.08100
H549        H  0.84883891  0.89140073  0.74288717     0.26600
H550        H  0.95626614  0.77593144  0.69260067     0.21400
H551        H  0.86584345  0.67193134  0.73958333     0.26700
H552        H  0.86763781  0.76130565  0.65843672     0.15500
C553        C  0.67898570  0.82856582  0.80016518    -0.11800
C554        C  0.70238507  0.84683564  0.79672411     0.14800
C555        C  0.71894091  0.85458013  0.82101441     0.01700
C556        C  0.71140137  0.84393554  0.84819274    -0.16100
C557        C  0.68772558  0.82569362  0.85182505    -0.10900
C558        C  0.67175053  0.81756248  0.82709591     0.08400
C559        C  0.70866503  0.85740725  0.76747988     0.09400
S560        S  0.74984356  0.87788225  0.81930926    -0.25200
H561        H  0.72394202  0.85030775  0.86671023     0.19700
S562        S  0.64264887  0.79226169  0.82767037    -0.30900
H563        H  0.66652604  0.82237330  0.78149688     0.10000
C564        C  0.72770180  0.84283282  0.74910501     0.03200
C565        C  0.73564869  0.85549182  0.72291075    -0.13200
C566        C  0.72484080  0.88236521  0.71493014    -0.08900
C567        C  0.70391432  0.89562685  0.73231777     0.06700
C568        C  0.69602873  0.88303464  0.75838339    -0.14000
S569        S  0.74360937  0.80936177  0.76014838    -0.30900
H570        H  0.75233801  0.84579717  0.70998544     0.10900
S571        S  0.68886837  0.93014827  0.72367331    -0.28000
H572        H  0.68099634  0.89396315  0.77231769     0.08100
H573        H  0.65694854  0.77296034  0.84589630     0.26600
H574        H  0.75870403  0.80417959  0.73451728     0.21400
H575        H  0.69338367  0.92809067  0.69386287     0.26700
H576        H  0.74915901  0.88497364  0.79004546     0.15500
C577        C  0.76283654  0.70694215  0.85170138    -0.11800
C578        C  0.78174560  0.69267763  0.87030232     0.14800
C579        C  0.77313458  0.68717852  0.89887164     0.01700
C580        C  0.74675378  0.69762275  0.90873617    -0.16100
C581        C  0.72866643  0.71357519  0.89070162    -0.10900
C582        C  0.73641226  0.71731175  0.86156862     0.08400
C583        C  0.81098275  0.68550840  0.85998825     0.09400
S584        S  0.79571528  0.66868289  0.92428238    -0.25200
H585        H  0.74124340  0.69496748  0.93118554     0.19700
S586        S  0.71383238  0.73610393  0.83637155    -0.30900
H587        H  0.76911646  0.71084257  0.82963939     0.10000
C588        C  0.81619544  0.66100959  0.84327897     0.03200
C589        C  0.84426632  0.65479023  0.83445255    -0.13200
C590        C  0.86763594  0.67236407  0.84222227    -0.08900
C591        C  0.86221617  0.69663752  0.85965236     0.06700
C592        C  0.83402823  0.70312086  0.86789449    -0.14000
S593        S  0.78711745  0.63734002  0.83370489    -0.30900
H594        H  0.84789840  0.63619598  0.82108512     0.10900
S595        S  0.89016830  0.71948514  0.87328376    -0.28000
H596        H  0.83005856  0.72173592  0.88116120     0.08100
H597        H  0.68800060  0.72973696  0.85056103     0.26600
H598        H  0.80400642  0.61600045  0.82077902     0.21400
H599        H  0.90815136  0.69662233  0.88125305     0.26700
H600        H  0.80965535  0.65117451  0.90413003     0.15500
C601        C  0.55082440  0.76679678  0.02776286    -0.11800
C602        C  0.55718785  0.78868645  0.04754673     0.14800
C603        C  0.58215759  0.80522600  0.04325730     0.01700
C604        C  0.59899856  0.80071442  0.01880355    -0.16100
C605        C  0.59238941  0.77936705  0.99848025    -0.10900
C606        C  0.56794850  0.76207332  0.00330214     0.08400
C607        C  0.53766469  0.79355956  0.07250906     0.09400
S608        S  0.59419540  0.83212053  0.06836242    -0.25200
H609        H  0.61791925  0.81387286  0.01588841     0.19700
S610        S  0.55660799  0.73470772  0.97854717    -0.30900
H611        H  0.53190784  0.75376068  0.03101941     0.10000
C612        C  0.52167292  0.81904685  0.07579983     0.03200
C613        C  0.50431057  0.82283127  0.10027485    -0.13200
C614        C  0.50225814  0.80160357  0.12165100    -0.08900
C615        C  0.51881008  0.77632178  0.11836854     0.06700
C616        C  0.53580765  0.77246881  0.09383583    -0.14000
S617        S  0.52219691  0.84624559  0.04821095    -0.30900
H618        H  0.49153252  0.84206880  0.10228232     0.10900
S619        S  0.52048213  0.74870429  0.14532371    -0.28000
H620        H  0.54838618  0.75307850  0.09171048     0.08100
H621        H  0.56227565  0.75099554  0.95377379     0.26600
H622        H  0.50804280  0.86750787  0.06420890     0.21400
H623        H  0.52281264  0.76823154  0.16817129     0.26700
H624        H  0.58263699  0.81925729  0.09307181     0.15500
C625        C  0.35930965  0.71796931  0.26118415    -0.11800
C626        C  0.37384199  0.69999343  0.28049171     0.14800
C627        C  0.40000356  0.70957569  0.29259070     0.01700
C628        C  0.41120117  0.73628010  0.28456585    -0.16100
C629        C  0.39750304  0.75348254  0.26396923    -0.10900
C630        C  0.37085501  0.74440561  0.25286674     0.08400
C631        C  0.36234639  0.67067554  0.28570161     0.09400
S632        S  0.42163606  0.68779172  0.31617782    -0.25200
H633        H  0.43212158  0.74251468  0.29250208     0.19700
S634        S  0.35196564  0.76468587  0.22614908    -0.30900
H635        H  0.33930497  0.71088307  0.25172831     0.10000
C636        C  0.35277514  0.66172770  0.31300351     0.03200
C637        C  0.34428338  0.63316126  0.31708973    -0.13200
C638        C  0.34399863  0.61347221  0.29422990    -0.08900
C639        C  0.35240744  0.62282315  0.26662337     0.06700
C640        C  0.36150668  0.65118757  0.26270014    -0.14000
S641        S  0.35013083  0.68692717  0.34230991    -0.30900
H642        H  0.33703434  0.62627452  0.33807668     0.10900
S643        S  0.35288038  0.59948778  0.23579948    -0.28000
H644        H  0.36856717  0.65800739  0.24159382     0.08100
H645        H  0.35810164  0.79063811  0.24006594     0.26600
H646        H  0.33834561  0.66789629  0.36254249     0.21400
H647        H  0.36004572  0.57454638  0.25113415     0.26700
H648        H  0.41431370  0.66136923  0.30377793     0.15500
C649        C  0.05907600  0.70661761  0.95449431    -0.11800
C650        C  0.05784787  0.68077602  0.93915364     0.14800
C651        C  0.07711870  0.65861484  0.94615431     0.01700
C652        C  0.09641910  0.66244436  0.96877312    -0.16100
C653        C  0.09756998  0.68801269  0.98485419    -0.10900
C654        C  0.07878222  0.71063697  0.97713811     0.08400
C655        C  0.03649906  0.67754200  0.91579256     0.09400
S656        S  0.07824132  0.62447145  0.92781647    -0.25200
H657        H  0.11078774  0.64493360  0.97377413     0.19700
S658        S  0.07891823  0.74444907  0.99596427    -0.30900
H659        H  0.04431938  0.72354741  0.94878648     0.10000
C660        C  0.00933796  0.66532664  0.92075746     0.03200
C661        C  0.99048698  0.66098334  0.89754065    -0.13200
C662        C  0.99854706  0.66799834  0.86926371    -0.08900
C663        C  0.02645498  0.67908176  0.86443930     0.06700
C664        C  0.04462756  0.68452844  0.88772441    -0.14000
S665        S  0.99884607  0.65510983  0.95665725    -0.30900
H666        H  0.96932896  0.65236799  0.90148272     0.10900
S667        S  0.04120357  0.68460729  0.82907080    -0.28000
H668        H  0.06592229  0.69293985  0.88381259     0.08100
H669        H  0.06018263  0.75904770  0.97733582     0.26600
H670        H  0.97358078  0.64067905  0.94876880     0.21400
H671        H  0.02926688  0.65938658  0.81767667     0.26700
H672        H  0.06114957  0.63088236  0.90389659     0.15500
C673        C  0.33674890  0.75136692  0.12948064    -0.11800
C674        C  0.31722370  0.77415434  0.12688226     0.14800
C675        C  0.32643215  0.80212990  0.13363330     0.01700
C676        C  0.35496775  0.80676404  0.14164167    -0.16100
C677        C  0.37426386  0.78392973  0.14510335    -0.10900
C678        C  0.36504454  0.75591490  0.13852348     0.08400
C679        C  0.28759797  0.76775913  0.11704703     0.09400
S680        S  0.30256814  0.83254005  0.13404678    -0.25200
H681        H  0.36171986  0.82834454  0.14690659     0.19700
S682        S  0.38853382  0.72533949  0.14025810    -0.30900
H683        H  0.32990530  0.72982147  0.12418545     0.10000
C684        C  0.27665179  0.77815172  0.09068742     0.03200
C685        C  0.24976873  0.76870217  0.08095376    -0.13200
C686        C  0.23408607  0.74830676  0.09650771    -0.08900
C687        C  0.24418498  0.73952315  0.12382543     0.06700
C688        C  0.27076151  0.74924614  0.13369884    -0.14000
S689        S  0.29814772  0.80055125  0.06756280    -0.30900
H690        H  0.24243999  0.77486685  0.05976089     0.10900
S691        S  0.22493685  0.71459248  0.14634833    -0.28000
H692        H  0.27885616  0.74154584  0.15411263     0.08100
H693        H  0.41348260  0.74038509  0.13252917     0.26600
H694        H  0.27585781  0.80846981  0.04878611     0.21400
H695        H  0.19767025  0.72059240  0.13490795     0.26700
H696        H  0.27770009  0.81711285  0.14114312     0.15500
C697        C  0.21897222  0.60709417  0.16348336    -0.11800
C698        C  0.20404486  0.61980249  0.18639601     0.14800
C699        C  0.18414645  0.64172656  0.18055952     0.01700
C700        C  0.17930864  0.65007914  0.15207792    -0.16100
C701        C  0.19355048  0.63680878  0.12895140    -0.10900
C702        C  0.21367740  0.61501942  0.13490505     0.08400
C703        C  0.20902861  0.60869766  0.21583138     0.09400
S704        S  0.16401362  0.65963615  0.20832183    -0.25200
H705        H  0.16403232  0.66709081  0.14792580     0.19700
S706        S  0.23197937  0.59536469  0.10713962    -0.30900
H707        H  0.23421477  0.59014360  0.16789680     0.10000
C708        C  0.19961413  0.58108498  0.22351668     0.03200
C709        C  0.20839860  0.56926096  0.24970472    -0.13200
C710        C  0.22663822  0.58431790  0.26827929    -0.08900
C711        C  0.23425136  0.61275341  0.26173099     0.06700
C712        C  0.22520641  0.62481159  0.23552212    -0.14000
S713        S  0.17775972  0.56022337  0.19921924    -0.30900
H714        H  0.20307887  0.54723087  0.25469394     0.10900
S715        S  0.25788705  0.63240680  0.28533322    -0.28000
H716        H  0.23208685  0.64615238  0.22956164     0.08100
H717        H  0.20797358  0.59345206  0.08891065     0.26600
H718        H  0.17639857  0.53531883  0.21617200     0.21400
H719        H  0.26036681  0.65692121  0.26795635     0.26700
H720        H  0.16240050  0.63622372  0.22722427     0.15500
C721        C  0.41805045  0.45905981  0.32020191    -0.11800
C722        C  0.41849413  0.44517231  0.29344850     0.14800
C723        C  0.39609813  0.45056791  0.27372457     0.01700
C724        C  0.37436858  0.47006200  0.28093118    -0.16100
C725        C  0.37399192  0.48447526  0.30754271    -0.10900
C726        C  0.39642036  0.47875458  0.32732975     0.08400
C727        C  0.44278968  0.42556232  0.28682226     0.09400
S728        S  0.39397134  0.43394454  0.23872653    -0.25200
H729        H  0.35739865  0.47388289  0.26547705     0.19700
S730        S  0.39977023  0.49691372  0.36129283    -0.30900
H731        H  0.43520278  0.45507264  0.33541079     0.10000
C732        C  0.46806761  0.43530735  0.27330954     0.03200
C733        C  0.49107898  0.41621057  0.26881810    -0.13200
C734        C  0.48931483  0.38755536  0.27778826    -0.08900
C735        C  0.46343139  0.37771270  0.29031505     0.06700
C736        C  0.44070805  0.39676088  0.29486039    -0.14000
S737        S  0.47141756  0.47241064  0.26307050    -0.30900
H738        H  0.51099500  0.42394995  0.25980375     0.10900
S739        S  0.45826317  0.34111970  0.30170256    -0.28000
H740        H  0.42124087  0.38910905  0.30498469     0.08100
H741        H  0.39398493  0.52415826  0.34975049     0.26600
H742        H  0.49898347  0.47025723  0.25107614     0.21400
H743        H  0.47721702  0.32894142  0.28174971     0.26700
H744        H  0.41325629  0.41138347  0.24329143     0.15500
C745        C  0.81521713  0.01244942  0.54209781    -0.11800
C746        C  0.80387015  0.03908430  0.54991914     0.14800
C747        C  0.78683483  0.04091715  0.57492858     0.01700
C748        C  0.78154357  0.01622282  0.59137923    -0.16100
C749        C  0.79301604  0.98935746  0.58373759    -0.10900
C750        C  0.80984043  0.98773319  0.55836631     0.08400
C751        C  0.80801179  0.06369658  0.52994193     0.09400
S752        S  0.77123177  0.07409144  0.58705072    -0.25200
H753        H  0.76886692  0.01824597  0.61075214     0.19700
S754        S  0.82382838  0.95468708  0.54441960    -0.30900
H755        H  0.82772664  0.01074833  0.52256730     0.10000
C756        C  0.83359917  0.07973385  0.52928038     0.03200
C757        C  0.83706872  0.10156995  0.50861807    -0.13200
C758        C  0.81552396  0.10770968  0.48822366    -0.08900
C759        C  0.78995711  0.09111447  0.48901605     0.06700
C760        C  0.78642658  0.06984987  0.50998783    -0.14000
S761        S  0.86164871  0.07258148  0.55505716    -0.30900
H762        H  0.85663951  0.11400115  0.50848016     0.10900
S763        S  0.76142768  0.09452888  0.46310233    -0.28000
H764        H  0.76693491  0.05723902  0.51016258     0.08100
H765        H  0.79780659  0.94024635  0.54834588     0.26600
H766        H  0.87968992  0.09529256  0.54694338     0.21400
H767        H  0.78000728  0.09442481  0.43928574     0.26700
H768        H  0.79189977  0.09228904  0.57489298     0.15500
C769        C  0.73452807  0.25880127  0.35182300    -0.11800
C770        C  0.71908832  0.27816269  0.36893632     0.14800
C771        C  0.73102276  0.28747949  0.39523335     0.01700
C772        C  0.75742650  0.27649267  0.40424166    -0.16100
C773        C  0.77177762  0.25550787  0.38822789    -0.10900
C774        C  0.76064881  0.24728396  0.36124945     0.08400
C775        C  0.68954745  0.28599180  0.36017565     0.09400
S776        S  0.71257716  0.31117763  0.41961166    -0.25200
H777        H  0.76538230  0.28217066  0.42539681     0.19700
S778        S  0.77725799  0.22010584  0.33936131    -0.30900
H779        H  0.72546050  0.25155217  0.33165509     0.10000
C780        C  0.68255568  0.31353355  0.35027156     0.03200
C781        C  0.65409670  0.31978833  0.34285359    -0.13200
C782        C  0.63221494  0.29897722  0.34464732    -0.08900
C783        C  0.63941592  0.27133370  0.35513215     0.06700
C784        C  0.66796525  0.26527977  0.36259275    -0.14000
S785        S  0.71004423  0.34045096  0.34618939    -0.30900
H786        H  0.64909695  0.34097684  0.33490935     0.10900
S787        S  0.61296782  0.24333050  0.35933277    -0.28000
H788        H  0.67367457  0.24424621  0.37051174     0.08100
H789        H  0.80496876  0.22347953  0.35069492     0.26600
H790        H  0.69231164  0.36206958  0.33490984     0.21400
H791        H  0.63113970  0.22252865  0.37141126     0.26700
H792        H  0.68470279  0.30178301  0.41317339     0.15500
C793        C  0.60346221  0.93746732  0.19404667    -0.11800
C794        C  0.57570865  0.94902002  0.19398458     0.14800
C795        C  0.57212309  0.97834905  0.18734076     0.01700
C796        C  0.59604522  0.99510110  0.18018131    -0.16100
C797        C  0.62387916  0.98360003  0.18019074    -0.10900
C798        C  0.62742677  0.95423389  0.18699236     0.08400
C799        C  0.55085724  0.92951424  0.19871738     0.09400
S800        S  0.53761541  0.99575104  0.18778974    -0.25200
H801        H  0.59294608  0.01757400  0.17533246     0.19700
S802        S  0.66167900  0.93642218  0.18550447    -0.30900
H803        H  0.60637244  0.91491861  0.19869257     0.10000
C804        C  0.53293258  0.92131754  0.17577843     0.03200
C805        C  0.50953727  0.90316358  0.18097069    -0.13200
C806        C  0.50358705  0.89234966  0.20862215    -0.08900
C807        C  0.52176559  0.90060536  0.23161957     0.06700
C808        C  0.54523926  0.91878021  0.22635599    -0.14000
S809        S  0.54054747  0.93301780  0.13954009    -0.30900
H810        H  0.49621387  0.89670279  0.16305118     0.10900
S811        S  0.51579502  0.88956524  0.26821858    -0.28000
H812        H  0.55898488  0.92502278  0.24405991     0.08100
H813        H  0.67166492  0.95165536  0.16140795     0.26600
H814        H  0.51867064  0.91742609  0.12584227     0.21400
H815        H  0.48586132  0.89295808  0.26686087     0.26700
H816        H  0.52505316  0.97781406  0.20850320     0.15500
C817        C  0.69321790  0.91253565  0.98683395    -0.11800
C818        C  0.69709919  0.90830107  0.01650398     0.14800
C819        C  0.69564998  0.88012851  0.02752650     0.01700
C820        C  0.69151820  0.85699155  0.00877681    -0.16100
C821        C  0.68731779  0.86114691  0.97916516    -0.10900
C822        C  0.68820892  0.88935553  0.96809116     0.08400
C823        C  0.70105313  0.93367794  0.03562632     0.09400
S824        S  0.69783765  0.87229552  0.06543548    -0.25200
H825        H  0.69051373  0.83552893  0.01758114     0.19700
S826        S  0.68436912  0.89593914  0.92999393    -0.30900
H827        H  0.69417143  0.93411811  0.97841088     0.10000
C828        C  0.72696041  0.93920850  0.05037240     0.03200
C829        C  0.72842334  0.96197348  0.07025454    -0.13200
C830        C  0.70452124  0.97953968  0.07567036    -0.08900
C831        C  0.67924947  0.97494844  0.05926159     0.06700
C832        C  0.67776031  0.95207145  0.03986933    -0.14000
S833        S  0.75812664  0.91726446  0.04387505    -0.30900
H834        H  0.74797392  0.96555055  0.08224398     0.10900
S835        S  0.64817672  0.99778172  0.06140803    -0.28000
H836        H  0.65801717  0.94834557  0.02814180     0.08100
H837        H  0.68465004  0.92600219  0.93149177     0.26600
H838        H  0.77614765  0.93058436  0.06409579     0.21400
H839        H  0.66404404  0.02327106  0.06394930     0.26700
H840        H  0.68456292  0.89761246  0.07483672     0.15500
C841        C  0.79418824  0.07659284  0.26599888    -0.11800
C842        C  0.78687566  0.10519498  0.27169898     0.14800
C843        C  0.77383879  0.12151347  0.24963941     0.01700
C844        C  0.76404372  0.10769448  0.22478166    -0.16100
C845        C  0.76899453  0.07839797  0.22034742    -0.10900
C846        C  0.78596995  0.06326100  0.24027447     0.08400
C847        C  0.79187021  0.11648396  0.30126040     0.09400
S848        S  0.76873471  0.15972256  0.25202213    -0.25200
H849        H  0.75155117  0.11967222  0.20921144     0.19700
S850        S  0.79534744  0.02636154  0.23412347    -0.30900
H851        H  0.80519059  0.06429171  0.28236413     0.10000
C852        C  0.76931161  0.12696196  0.31857640     0.03200
C853        C  0.77518628  0.13667659  0.34651558    -0.13200
C854        C  0.80282851  0.13482074  0.35838188    -0.08900
C855        C  0.82512767  0.12279406  0.34147935     0.06700
C856        C  0.81941480  0.11434892  0.31310518    -0.14000
S857        S  0.73258483  0.12599536  0.30627975    -0.30900
H858        H  0.75792902  0.14512674  0.35949781     0.10900
S859        S  0.86120515  0.11826072  0.35509164    -0.28000
H860        H  0.83647033  0.10561885  0.30003021     0.08100
H861        H  0.81028560  0.02189816  0.26001430     0.26600
H862        H  0.72099948  0.14295113  0.32836868     0.21400
H863        H  0.87441687  0.11186561  0.32870805     0.26700
H864        H  0.79088152  0.16464629  0.27193301     0.15500
C865        C  0.65363611  0.15224347  0.22013591    -0.11800
C866        C  0.63235594  0.16620907  0.20406444     0.14800
C867        C  0.62110592  0.15248750  0.17946880     0.01700
C868        C  0.63174579  0.12557653  0.17132402    -0.16100
C869        C  0.65221547  0.11109238  0.18813346    -0.10900
C870        C  0.66305249  0.12467521  0.21300986     0.08400
C871        C  0.62153191  0.19422993  0.21476830     0.09400
S872        S  0.59253507  0.16764019  0.15824861    -0.25200
H873        H  0.62333127  0.11544743  0.15214508     0.19700
S874        S  0.68902228  0.10755060  0.23599368    -0.30900
H875        H  0.66224857  0.16276711  0.23898745     0.10000
C876        C  0.60925239  0.19619742  0.24233200     0.03200
C877        C  0.60063317  0.22280533  0.25273361    -0.13200
C878        C  0.60322067  0.24795512  0.23623763    -0.08900
C879        C  0.61542430  0.24610803  0.20855139     0.06700
C880        C  0.62449020  0.21927526  0.19810136    -0.14000
S881        S  0.60279780  0.16462331  0.26394279    -0.30900
H882        H  0.59051217  0.22375322  0.27363724     0.10900
S883        S  0.62082351  0.27706317  0.18615358    -0.28000
H884        H  0.63425753  0.21794721  0.17705021     0.08100
H885        H  0.69774813  0.13234411  0.25071047     0.26600
H886        H  0.59576683  0.17890034  0.28959648     0.21400
H887        H  0.62517244  0.29632289  0.20896416     0.26700
H888        H  0.57833634  0.18082800  0.18135328     0.15500
C889        C  0.33136087  0.40426593  0.47184418    -0.11800
C890        C  0.30342645  0.40985463  0.46214899     0.14800
C891        C  0.28104884  0.39127116  0.47030132     0.01700
C892        C  0.28710471  0.36721843  0.48719823    -0.16100
C893        C  0.31500170  0.36153757  0.49713584    -0.10900
C894        C  0.33740686  0.38049210  0.48940069     0.08400
C895        C  0.29863992  0.43397868  0.44188566     0.09400
S896        S  0.24425209  0.39730332  0.46009473    -0.25200
H897        H  0.26965053  0.35315803  0.49321781     0.19700
S898        S  0.37404949  0.37384836  0.50012341    -0.30900
H899        H  0.34851740  0.41831528  0.46509605     0.10000
C900        C  0.30035531  0.46276275  0.45081084     0.03200
C901        C  0.29642519  0.48479772  0.43057750    -0.13200
C902        C  0.29063640  0.47863414  0.40157596    -0.08900
C903        C  0.28925404  0.44969408  0.39272467     0.06700
C904        C  0.29288433  0.42780615  0.41296768    -0.14000
S905        S  0.30675930  0.47137665  0.48809833    -0.30900
H906        H  0.29762028  0.50691681  0.43736740     0.10900
S907        S  0.28471846  0.43921350  0.35569136    -0.28000
H908        H  0.29196985  0.40569982  0.40599154     0.08100
H909        H  0.38534504  0.40017700  0.49081186     0.26600
H910        H  0.30582499  0.50130518  0.48497082     0.21400
H911        H  0.30216081  0.46102857  0.34436018     0.26700
H912        H  0.24598720  0.42734277  0.45962294     0.15500
C913        C  0.41546876  0.29160306  0.43359153    -0.11800
C914        C  0.44182492  0.27731400  0.43420381     0.14800
C915        C  0.44840683  0.25945606  0.45787603     0.01700
C916        C  0.42900810  0.25722455  0.48081833    -0.16100
C917        C  0.40304982  0.27238473  0.48062737    -0.10900
C918        C  0.39594981  0.28913462  0.45619883     0.08400
C919        C  0.46258619  0.28315519  0.41076141     0.09400
S920        S  0.48144582  0.23959379  0.46035653    -0.25200
H921        H  0.43467770  0.24435705  0.49939111     0.19700
S922        S  0.36252184  0.30827045  0.45230963    -0.30900
H923        H  0.41024681  0.30523331  0.41546157     0.10000
C924        C  0.45720535  0.27470421  0.38219492     0.03200
C925        C  0.47706671  0.28157107  0.36063483    -0.13200
C926        C  0.50245876  0.29663612  0.36690733    -0.08900
C927        C  0.50783322  0.30474000  0.39578914     0.06700
C928        C  0.48768677  0.29835974  0.41713606    -0.14000
S929        S  0.42544721  0.25443058  0.37327641    -0.30900
H930        H  0.47274545  0.27512775  0.33872293     0.10900
S931        S  0.54042274  0.32192250  0.40735455    -0.28000
H932        H  0.49181555  0.30491072  0.43908183     0.08100
H933        H  0.34622099  0.29079333  0.47057718     0.26600
H934        H  0.42963651  0.25400722  0.34334420     0.21400
H935        H  0.55837399  0.30296946  0.39225536     0.26700
H936        H  0.48528962  0.23607535  0.43060005     0.15500
C937        C  0.22875977  0.50978769  0.95023976    -0.11800
C938        C  0.21428799  0.53485628  0.94179028     0.14800
C939        C  0.20395562  0.53681494  0.91330446     0.01700
C940        C  0.20590258  0.51310565  0.89499490    -0.16100
C941        C  0.21887877  0.48739613  0.90383048    -0.10900
C942        C  0.23106601  0.48605769  0.93166612     0.08400
C943        C  0.20832865  0.55775912  0.96342209     0.09400
S944        S  0.18740519  0.56878214  0.89920147    -0.25200
H945        H  0.19685696  0.51464382  0.87357451     0.19700
S946        S  0.24797890  0.45420974  0.94544302    -0.30900
H947        H  0.23707826  0.50817352  0.97193416     0.10000
C948        C  0.18033989  0.56272503  0.97387715     0.03200
C949        C  0.17515369  0.58571119  0.99275050    -0.13200
C950        C  0.19736282  0.60400520  0.00167453    -0.08900
C951        C  0.22567293  0.59796937  0.99227703     0.06700
C952        C  0.23072834  0.57527079  0.97313098    -0.14000
S953        S  0.15116361  0.53957294  0.96334784    -0.30900
H954        H  0.15355181  0.58981030  0.00013798     0.10900
S955        S  0.25650645  0.61763973  0.00472907    -0.28000
H956        H  0.25235113  0.57125783  0.96565786     0.08100
H957        H  0.22882542  0.43490328  0.93248409     0.26600
H958        H  0.12920269  0.55500444  0.97703806     0.21400
H959        H  0.24666814  0.62012337  0.03320915     0.26700
H960        H  0.20253937  0.58814075  0.91665495     0.15500
C961        C  0.10929356  0.52630628  0.79235244    -0.11800
C962        C  0.08142906  0.51877615  0.80069711     0.14800
C963        C  0.07723999  0.49268580  0.81553871     0.01700
C964        C  0.10065535  0.47444400  0.82069803    -0.16100
C965        C  0.12866567  0.48184325  0.81222985    -0.10900
C966        C  0.13286231  0.50868384  0.79851410     0.08400
C967        C  0.05761353  0.53938809  0.79510452     0.09400
S968        S  0.04265196  0.48147542  0.82867468    -0.25200
H969        H  0.09686196  0.45419496  0.83143382     0.19700
S970        S  0.16776346  0.52266711  0.78965118    -0.30900
H971        H  0.11282421  0.54663178  0.78167075     0.10000
C972        C  0.05505379  0.56464158  0.81141518     0.03200
C973        C  0.03177264  0.58304255  0.80668499    -0.13200
C974        C  0.01056965  0.57704293  0.78595274    -0.08900
C975        C  0.01362814  0.55206883  0.76899392     0.06700
C976        C  0.03711512  0.53364343  0.77366220    -0.14000
S977        S  0.08080422  0.57292384  0.83926082    -0.30900
H978        H  0.02982401  0.60216259  0.81964944     0.10900
S979        S  0.98774808  0.54174159  0.74221336    -0.28000
H980        H  0.03906612  0.51432281  0.76097077     0.08100
H981        H  0.18052362  0.51381998  0.81561343     0.26600
H982        H  0.06911773  0.59947240  0.84736129     0.21400
H983        H  0.96373702  0.54882205  0.75899890     0.26700
H984        H  0.03154073  0.50901281  0.83342472     0.15500
C985        C  0.26145818  0.34288319  0.72090007    -0.11800
C986        C  0.28709143  0.35446638  0.71055622     0.14800
C987        C  0.30153906  0.37535412  0.72704215     0.01700
C988        C  0.28902530  0.38550941  0.75250502    -0.16100
C989        C  0.26231358  0.37527508  0.76202253    -0.10900
C990        C  0.24908021  0.35270066  0.74642466     0.08400
C991        C  0.29649118  0.34610343  0.68132695     0.09400
S992        S  0.33480503  0.39147259  0.71573869    -0.25200
H993        H  0.29944133  0.40282134  0.76397686     0.19700
S994        S  0.21591338  0.33591252  0.75710864    -0.30900
H995        H  0.25054443  0.32655010  0.70848534     0.10000
C996        C  0.31456490  0.32244923  0.67675388     0.03200
C997        C  0.32198689  0.31481243  0.64859636    -0.13200
C998        C  0.31100724  0.32979004  0.62474576    -0.08900
C999        C  0.29258791  0.35331024  0.62936247     0.06700
C1000       C  0.28565597  0.36127618  0.65764271    -0.14000
S1001       S  0.32807885  0.30196440  0.70677362    -0.30900
H1002       H  0.33591611  0.29661579  0.64508339     0.10900
S1003       S  0.27874323  0.37394994  0.59957282    -0.28000
H1004       H  0.27157779  0.37929215  0.66145423     0.08100
H1005       H  0.22046965  0.33935789  0.78668860     0.26600
H1006       H  0.34216944  0.28084303  0.69051534     0.21400
H1007       H  0.26237593  0.39324266  0.61593748     0.26700
H1008       H  0.34458002  0.36854710  0.69892351     0.15500
C1009       C  0.93257816  0.20942825  0.53619782    -0.11800
C1010       C  0.94148472  0.18137717  0.54241200     0.14800
C1011       C  0.93184320  0.15877055  0.52474107     0.01700
C1012       C  0.91433534  0.16474784  0.50103089    -0.16100
C1013       C  0.90531955  0.19279378  0.49467565    -0.10900
C1014       C  0.91484018  0.21540455  0.51252110     0.08400
C1015       C  0.96114802  0.17646715  0.56713690     0.09400
S1016       S  0.94063713  0.12176039  0.53149797    -0.25200
H1017       H  0.90690083  0.14706706  0.48792413     0.19700
S1018       S  0.90620356  0.25236106  0.50564525    -0.30900
H1019       H  0.93999317  0.22687354  0.54957774     0.10000
C1020       C  0.99020759  0.16923374  0.56310592     0.03200
C1021       C  0.00785513  0.16444778  0.58715528    -0.13200
C1022       C  0.99725055  0.16703711  0.61534208    -0.08900
C1023       C  0.96792555  0.17397163  0.61920445     0.06700
C1024       C  0.95042309  0.17890978  0.59516604    -0.14000
S1025       S  0.00509704  0.16716033  0.52733791    -0.30900
H1026       H  0.03027185  0.15939367  0.58399286     0.10900
S1027       S  0.95109999  0.17587266  0.65402767    -0.28000
H1028       H  0.92801749  0.18416801  0.59831472     0.08100
H1029       H  0.90824117  0.25004236  0.47556393     0.26600
H1030       H  0.03298646  0.15920330  0.53559103     0.21400
H1031       H  0.96720562  0.15363984  0.66638725     0.26700
H1032       H  0.94301587  0.12418841  0.56150628     0.15500
C1033       C  0.89868092  0.01465765  0.71268993    -0.11800
C1034       C  0.92099781  0.01698899  0.69277451     0.14800
C1035       C  0.91956207  0.00114134  0.66693266     0.01700
C1036       C  0.89561782  0.98390880  0.66132607    -0.16100
C1037       C  0.87300661  0.98165349  0.68112449    -0.10900
C1038       C  0.87465602  0.99758905  0.70704614     0.08400
C1039       C  0.94378449  0.03850194  0.69794540     0.09400
S1040       S  0.94738952  0.00230541  0.64005129    -0.25200
H1041       H  0.89491857  0.97176371  0.64151110     0.19700
S1042       S  0.84595699  0.99895932  0.73283360    -0.30900
H1043       H  0.89938674  0.02727178  0.73220420     0.10000
C1044       C  0.94387109  0.06447983  0.68267614     0.03200
C1045       C  0.96709057  0.08314446  0.68565089    -0.13200
C1046       C  0.99032338  0.07678749  0.70388077    -0.08900
C1047       C  0.98930712  0.05151648  0.72061848     0.06700
C1048       C  0.96593994  0.03273878  0.71759882    -0.14000
S1049       S  0.91445954  0.07381889  0.65913616    -0.30900
H1050       H  0.96740736  0.10266811  0.67318667     0.10900
S1051       S  0.01773146  0.04114869  0.74466638    -0.28000
H1052       H  0.96561714  0.01291925  0.72971805     0.08100
H1053       H  0.82490581  0.00333923  0.71166384     0.26600
H1054       H  0.92431437  0.10128042  0.65164113     0.21400
H1055       H  0.03990079  0.04839797  0.72555388     0.26700
H1056       H  0.97003886  0.00866224  0.65892348     0.15500
C1057       C  0.12036702  0.32186648  0.77427866    -0.11800
C1058       C  0.12828921  0.29734347  0.78979267     0.14800
C1059       C  0.14540163  0.30035865  0.81458970     0.01700
C1060       C  0.15429745  0.32766434  0.82315470    -0.16100
C1061       C  0.14733113  0.35232308  0.80710910    -0.10900
C1062       C  0.12931429  0.34922203  0.78279429     0.08400
C1063       C  0.11885783  0.26904490  0.77893075     0.09400
S1064       S  0.15731014  0.27027501  0.83581608    -0.25200
H1065       H  0.16777280  0.32941388  0.84203518     0.19700
S1066       S  0.11606768  0.37913601  0.76226849    -0.30900
H1067       H  0.10688343  0.31965596  0.75544253     0.10000
C1068       C  0.09610088  0.25373399  0.79160604     0.03200
C1069       C  0.08643462  0.22827699  0.77872198    -0.13200
C1070       C  0.09892454  0.21796550  0.75325001    -0.08900
C1071       C  0.12292907  0.23259913  0.74171126     0.06700
C1072       C  0.13234288  0.25798747  0.75448766    -0.14000
S1073       S  0.07806603  0.26765005  0.82293532    -0.30900
H1074       H  0.06783615  0.21746166  0.78741885     0.10900
S1075       S  0.14227368  0.22049371  0.71041579    -0.28000
H1076       H  0.15016571  0.26951654  0.74504173     0.08100
H1077       H  0.11096324  0.39642181  0.78649879     0.26600
H1078       H  0.05958678  0.24422442  0.82709324     0.21400
H1079       H  0.13632039  0.19135894  0.71454332     0.26700
H1080       H  0.15814544  0.25031602  0.81326430     0.15500
C1081       C  0.15894021  0.20819762  0.61413184    -0.11800
C1082       C  0.18196363  0.18919217  0.61775965     0.14800
C1083       C  0.17689700  0.16235511  0.63059489     0.01700
C1084       C  0.14919607  0.15521848  0.63950325    -0.16100
C1085       C  0.12602637  0.17447810  0.63684003    -0.10900
C1086       C  0.13111265  0.20109712  0.62309464     0.08400
C1087       C  0.21102121  0.19838270  0.60860538     0.09400
S1088       S  0.20494254  0.13655546  0.63712695    -0.25200
H1089       H  0.14610746  0.13455403  0.64966639     0.19700
S1090       S  0.10328252  0.22675695  0.61571168    -0.30900
H1091       H  0.16269484  0.22877928  0.60398291     0.10000
C1092       C  0.22450580  0.18716355  0.58392494     0.03200
C1093       C  0.25124201  0.19811012  0.57530327    -0.13200
C1094       C  0.26466204  0.22022854  0.59075630    -0.08900
C1095       C  0.25180904  0.23005342  0.61649476     0.06700
C1096       C  0.22511697  0.21930477  0.62487816    -0.14000
S1097       S  0.20675793  0.16045552  0.56226068    -0.30900
H1098       H  0.26068801  0.19088012  0.55532688     0.10900
S1099       S  0.26806620  0.25674544  0.63932070    -0.28000
H1100       H  0.21506693  0.22752131  0.64416928     0.08100
H1101       H  0.08421776  0.20616670  0.60464246     0.26600
H1102       H  0.22966253  0.15558045  0.54324872     0.21400
H1103       H  0.29651551  0.24994393  0.63201455     0.26700
H1104       H  0.22709635  0.15648829  0.64130998     0.15500
C1105       C  0.30290090  0.93658105  0.28526712    -0.11800
C1106       C  0.30343468  0.93321107  0.25532341     0.14800
C1107       C  0.28150920  0.94618404  0.23873867     0.01700
C1108       C  0.26072462  0.96335019  0.25229197    -0.16100
C1109       C  0.26168491  0.96853786  0.28203197    -0.10900
C1110       C  0.28262416  0.95419695  0.29874095     0.08400
C1111       C  0.32746443  0.91626647  0.24260436     0.09400
S1112       S  0.27969687  0.94303855  0.20016195    -0.25200
H1113       H  0.24491983  0.97432682  0.23922686     0.19700
S1114       S  0.28392344  0.95831099  0.33738114    -0.30900
H1115       H  0.31912166  0.92592035  0.29804606     0.10000
C1116       C  0.35624783  0.92505547  0.24580483     0.03200
C1117       C  0.37855104  0.90705179  0.23658716    -0.13200
C1118       C  0.37303662  0.88041157  0.22370926    -0.08900
C1119       C  0.34401395  0.87201301  0.21976328     0.06700
C1120       C  0.32177003  0.88999543  0.22922426    -0.14000
S1121       S  0.36467583  0.95953363  0.26124490    -0.30900
H1122       H  0.40058463  0.91379571  0.23938605     0.10900
S1123       S  0.33301165  0.83823586  0.20473846    -0.28000
H1124       H  0.29973906  0.88300752  0.22696865     0.08100
H1125       H  0.30746430  0.94019300  0.34243490     0.26600
H1126       H  0.39466252  0.95657180  0.26073188     0.21400
H1127       H  0.35954405  0.82446943  0.20461820     0.26700
H1128       H  0.30935828  0.94060674  0.19561272     0.15500
C1129       C  0.24517394  0.12748712  0.44048370    -0.11800
C1130       C  0.24504715  0.15503717  0.42837647     0.14800
C1131       C  0.23462996  0.15861174  0.40004077     0.01700
C1132       C  0.22534619  0.13469073  0.38434806    -0.16100
C1133       C  0.22611852  0.10707325  0.39623903    -0.10900
C1134       C  0.23556856  0.10363544  0.42491255     0.08400
C1135       C  0.25705312  0.17925293  0.44540607     0.09400
S1136       S  0.23304541  0.19301358  0.38253084    -0.25200
H1137       H  0.21804647  0.13757808  0.36240791     0.19700
S1138       S  0.23525632  0.06949685  0.44300081    -0.30900
H1139       H  0.25290849  0.12454567  0.46226885     0.10000
C1140       C  0.24310586  0.18984079  0.47009164     0.03200
C1141       C  0.25606672  0.21161270  0.48645954    -0.13200
C1142       C  0.28280427  0.22321465  0.47871060    -0.08900
C1143       C  0.29593662  0.21346472  0.45308682     0.06700
C1144       C  0.28317416  0.19150874  0.43700219    -0.14000
S1145       S  0.20882119  0.17551044  0.48084306    -0.30900
H1146       H  0.24590315  0.21870882  0.50609990     0.10900
S1147       S  0.32855139  0.22877585  0.43939904    -0.28000
H1148       H  0.29374105  0.18383309  0.41775698     0.08100
H1149       H  0.21064544  0.05912380  0.42898603     0.26600
H1150       H  0.20387430  0.19479239  0.50350266     0.21400
H1151       H  0.31991270  0.25682043  0.44590570     0.26700
H1152       H  0.22889401  0.20919273  0.40764065     0.15500
C1153       C  0.94135518  0.27483939  0.28177884    -0.11800
C1154       C  0.94670999  0.24773561  0.29358585     0.14800
C1155       C  0.97022194  0.23168948  0.28329239     0.01700
C1156       C  0.98865006  0.24369400  0.26272542    -0.16100
C1157       C  0.98457486  0.27167599  0.25230094    -0.10900
C1158       C  0.95980285  0.28692563  0.26116368     0.08400
C1159       C  0.92845382  0.23762652  0.31775818     0.09400
S1160       S  0.97850491  0.19606678  0.29588328    -0.25200
H1161       H  0.00725078  0.23155969  0.25601786     0.19700
S1162       S  0.95107175  0.32159245  0.24617466    -0.30900
H1163       H  0.92297862  0.28678275  0.28932732     0.10000
C1164       C  0.93409728  0.24634471  0.34618214     0.03200
C1165       C  0.91737423  0.23555324  0.36878872    -0.13200
C1166       C  0.89456547  0.21650061  0.36374766    -0.08900
C1167       C  0.88803160  0.20893242  0.33497719     0.06700
C1168       C  0.90534275  0.21919523  0.31239270    -0.14000
S1169       S  0.96300822  0.27093548  0.35372704    -0.30900
H1170       H  0.92228623  0.24185221  0.39064143     0.10900
S1171       S  0.85649520  0.18824958  0.32648339    -0.28000
H1172       H  0.90072159  0.21319824  0.29038933     0.08100
H1173       H  0.92548646  0.32600450  0.26149393     0.26600
H1174       H  0.95665593  0.27504942  0.38298295     0.21400
H1175       H  0.85999887  0.18801475  0.29646675     0.26700
H1176       H  0.96503180  0.19768751  0.32277536     0.15500
C1177       C  0.13308465  0.16011454  0.31030573    -0.11800
C1178       C  0.13259909  0.16989675  0.28184295     0.14800
C1179       C  0.14353808  0.15192864  0.25995018     0.01700
C1180       C  0.15474240  0.12497770  0.26704958    -0.16100
C1181       C  0.15435893  0.11473163  0.29544893    -0.10900
C1182       C  0.14332693  0.13274994  0.31737088     0.08400
C1183       C  0.12131078  0.19916785  0.27582524     0.09400
S1184       S  0.14325499  0.16174626  0.22244225    -0.25200
H1185       H  0.16320797  0.11157660  0.25006300     0.19700
S1186       S  0.14319083  0.12205785  0.35472189    -0.30900
H1187       H  0.12540560  0.17418555  0.32709579     0.10000
C1188       C  0.09276657  0.20700491  0.28241994     0.03200
C1189       C  0.08247925  0.23405975  0.27411768    -0.13200
C1190       C  0.09986405  0.25321422  0.25880845    -0.08900
C1191       C  0.12885589  0.24606195  0.25395385     0.06700
C1192       C  0.13932670  0.21937227  0.26271476    -0.14000
S1193       S  0.06838228  0.18169345  0.29866484    -0.30900
H1194       H  0.06009032  0.23926779  0.27722166     0.10900
S1195       S  0.15312018  0.26974863  0.23554797    -0.28000
H1196       H  0.16144557  0.21390404  0.25835649     0.08100
H1197       H  0.13066965  0.14699198  0.36603975     0.26600
H1198       H  0.04541637  0.20079649  0.30249081     0.21400
H1199       H  0.13902379  0.29491260  0.24418725     0.26700
H1200       H  0.11768418  0.17761990  0.22360962     0.15500
C1201       C  0.21293505  0.44652334  0.23940022    -0.11800
C1202       C  0.19461762  0.43153263  0.25801991     0.14800
C1203       C  0.20008822  0.43246046  0.28788539     0.01700
C1204       C  0.22198764  0.45007687  0.29851691    -0.16100
C1205       C  0.23954359  0.46619557  0.28006485    -0.10900
C1206       C  0.23539525  0.46358107  0.25005021     0.08400
C1207       C  0.16910383  0.41645533  0.24602243     0.09400
S1208       S  0.17901142  0.41274047  0.31365265    -0.25200
H1209       H  0.22470327  0.45204645  0.32157972     0.19700
S1210       S  0.25590949  0.48399392  0.22453919    -0.30900
H1211       H  0.20904004  0.44577692  0.21642996     0.10000
C1212       C  0.14109820  0.42745237  0.24944446     0.03200
C1213       C  0.11739119  0.41142561  0.23984881    -0.13200
C1214       C  0.12115203  0.38473189  0.22662646    -0.08900
C1215       C  0.14919523  0.37446133  0.22188077     0.06700
C1216       C  0.17287630  0.39036161  0.23163696    -0.14000
S1217       S  0.13555821  0.46189529  0.26610791    -0.30900
H1218       H  0.09586505  0.41934303  0.24321595     0.10900
S1219       S  0.15490004  0.34104898  0.20338489    -0.28000
H1220       H  0.19435014  0.38218963  0.22871457     0.08100
H1221       H  0.28246912  0.47642161  0.23662667     0.26600
H1222       H  0.10591964  0.46355900  0.26081588     0.21400
H1223       H  0.18484935  0.34335567  0.20097793     0.26700
H1224       H  0.17188079  0.38997799  0.29525359     0.15500
C1225       C  0.24932335  0.30515740  0.89985162    -0.11800
C1226       C  0.24991142  0.30717739  0.92993438     0.14800
C1227       C  0.24197979  0.33346433  0.94286659     0.01700
C1228       C  0.23331066  0.35664747  0.92558661    -0.16100
C1229       C  0.23350961  0.35484847  0.89543090    -0.10900
C1230       C  0.24119395  0.32842491  0.88259096     0.08400
C1231       C  0.26089064  0.28223020  0.94686144     0.09400
S1232       S  0.24393824  0.33943748  0.98113089    -0.25200
H1233       H  0.22775745  0.37674348  0.93576359     0.19700
S1234       S  0.24067221  0.32260979  0.84430241    -0.30900
H1235       H  0.25538480  0.28520509  0.88968097     0.10000
C1236       C  0.24371155  0.26675532  0.96638959     0.03200
C1237       C  0.25628329  0.24558615  0.98397154    -0.13200
C1238       C  0.28564173  0.23873320  0.98186938    -0.08900
C1239       C  0.30200467  0.25229669  0.95994284     0.06700
C1240       C  0.28953404  0.27404355  0.94320368    -0.14000
S1241       S  0.20576234  0.27383233  0.96879183    -0.30900
H1242       H  0.24332755  0.23508269  0.00011708     0.10900
S1243       S  0.33877376  0.24229850  0.95252882    -0.28000
H1244       H  0.30233628  0.28527201  0.92742272     0.08100
H1245       H  0.21786823  0.34140290  0.83870852     0.26600
H1246       H  0.19925719  0.25150638  0.98800519     0.21400
H1247       H  0.34357511  0.26133818  0.92961432     0.26700
H1248       H  0.26717851  0.32101472  0.98633785     0.15500
C1249       C  0.17646014  0.30983064  0.11874369    -0.11800
C1250       C  0.18528531  0.28115540  0.11868984     0.14800
C1251       C  0.16585090  0.25991927  0.12817494     0.01700
C1252       C  0.13889528  0.26784194  0.13871468    -0.16100
C1253       C  0.13009699  0.29657614  0.13932561    -0.10900
C1254       C  0.14901355  0.31769369  0.12812350     0.08400
C1255       C  0.21507116  0.27382753  0.10976294     0.09400
S1256       S  0.17415896  0.22222851  0.12751142    -0.25200
H1257       H  0.12482618  0.25129082  0.14692482     0.19700
S1258       S  0.13955220  0.35494178  0.12445502    -0.30900
H1259       H  0.19106674  0.32625479  0.11125749     0.10000
C1260       C  0.22489247  0.27789012  0.08131671     0.03200
C1261       C  0.25171816  0.26678922  0.07314783    -0.13200
C1262       C  0.26869824  0.25127704  0.09265528    -0.08900
C1263       C  0.25973515  0.24924133  0.12155654     0.06700
C1264       C  0.23327005  0.26064675  0.12983038    -0.14000
S1265       S  0.20221631  0.29447982  0.05458592    -0.30900
H1266       H  0.25833181  0.26799279  0.05088413     0.10900
S1267       S  0.28079313  0.23142750  0.14856244    -0.28000
H1268       H  0.22621784  0.25812330  0.15186747     0.08100
H1269       H  0.11162529  0.34930151  0.11450227     0.26600
H1270       H  0.22221865  0.29397621  0.03199741     0.21400
H1271       H  0.30714992  0.23944679  0.13632919     0.26700
H1272       H  0.19138136  0.22333595  0.10275123     0.15500
C1273       C  0.27435054  0.12639840  0.23865750    -0.11800
C1274       C  0.29458118  0.11132435  0.22227023     0.14800
C1275       C  0.30711929  0.08633135  0.23383723     0.01700
C1276       C  0.29686804  0.07528936  0.25985485    -0.16100
C1277       C  0.27457582  0.08881079  0.27484713    -0.10900
C1278       C  0.26428658  0.11543458  0.26484532     0.08400
C1279       C  0.29989186  0.12052473  0.19218760     0.09400
S1280       S  0.33424550  0.06609447  0.21517931    -0.25200
H1281       H  0.30454413  0.05461665  0.26711903     0.19700
S1282       S  0.23583604  0.13454329  0.28270335    -0.30900
H1283       H  0.26500526  0.14583816  0.23011853     0.10000
C1284       C  0.28680929  0.10652189  0.16869500     0.03200
C1285       C  0.29230402  0.11600082  0.14049158    -0.13200
C1286       C  0.31074667  0.13917802  0.13528175    -0.08900
C1287       C  0.32308784  0.15363563  0.15913758     0.06700
C1288       C  0.31764197  0.14406398  0.18711237    -0.14000
S1289       S  0.26301474  0.07662971  0.17471665    -0.30900
H1290       H  0.28274553  0.10495933  0.12242730     0.10900
S1291       S  0.34526383  0.18506854  0.15582183    -0.28000
H1292       H  0.32724549  0.15516491  0.20516965     0.08100
H1293       H  0.24071835  0.12280233  0.31009039     0.26600
H1294       H  0.25501955  0.07265981  0.14583994     0.21400
H1295       H  0.33237853  0.19548457  0.13064193     0.26700
H1296       H  0.34550042  0.08913808  0.19939721     0.15500
C1297       C  0.43403208  0.20756851  0.15609706    -0.11800
C1298       C  0.43879482  0.23699504  0.16010679     0.14800
C1299       C  0.42745430  0.25631523  0.13956343     0.01700
C1300       C  0.40954579  0.24614488  0.11758695    -0.16100
C1301       C  0.40433365  0.21674483  0.11381611    -0.10900
C1302       C  0.41778194  0.19725142  0.13290461     0.08400
C1303       C  0.45668255  0.24655753  0.18505297     0.09400
S1304       S  0.43612480  0.29395172  0.13910674    -0.25200
H1305       H  0.40029303  0.26139279  0.10263775     0.19700
S1306       S  0.41415097  0.15905269  0.12964749    -0.30900
H1307       H  0.44325106  0.19239637  0.17114309     0.10000
C1308       C  0.44670391  0.26626755  0.20584301     0.03200
C1309       C  0.46565668  0.27663395  0.22702037    -0.13200
C1310       C  0.49390630  0.26641194  0.22916628    -0.08900
C1311       C  0.50286933  0.24476859  0.20989713     0.06700
C1312       C  0.48452828  0.23559626  0.18789621    -0.14000
S1313       S  0.40971989  0.27768757  0.20601640    -0.30900
H1314       H  0.45854887  0.29296116  0.24189543     0.10900
S1315       S  0.53820634  0.22960182  0.21062102    -0.28000
H1316       H  0.49228075  0.22005746  0.17245749     0.08100
H1317       H  0.42797050  0.15834323  0.10278673     0.26600
H1318       H  0.41172471  0.29588831  0.23000404     0.21400
H1319       H  0.53626999  0.22130936  0.23960854     0.26700
H1320       H  0.46353907  0.29104766  0.15131760     0.15500
C1321       C  0.78420861  0.53009816  0.73475291    -0.11800
C1322       C  0.81087143  0.53329386  0.72109436     0.14800
C1323       C  0.81564845  0.51895684  0.69482056     0.01700
C1324       C  0.79419581  0.50135919  0.68333613    -0.16100
C1325       C  0.76771824  0.49722130  0.69730983    -0.10900
C1326       C  0.76253404  0.51265967  0.72298827     0.08400
C1327       C  0.83329168  0.55180666  0.73433013     0.09400
S1328       S  0.84852109  0.52211576  0.67453266    -0.25200
H1329       H  0.79876871  0.48998260  0.66355622     0.19700
S1330       S  0.72845375  0.51203492  0.74107582    -0.30900
H1331       H  0.78012281  0.54158578  0.75454889     0.10000
C1332       C  0.83715735  0.58040021  0.72564216     0.03200
C1333       C  0.86063539  0.59608926  0.73616180    -0.13200
C1334       C  0.88072122  0.58390393  0.75526097    -0.08900
C1335       C  0.87637253  0.55523702  0.76439763     0.06700
C1336       C  0.85260333  0.53972383  0.75403378    -0.14000
S1337       S  0.81241846  0.59673419  0.70066594    -0.30900
H1338       H  0.86346705  0.61800845  0.72920751     0.10900
S1339       S  0.90157069  0.53734700  0.78784056    -0.28000
H1340       H  0.84951629  0.51769330  0.76045334     0.08100
H1341       H  0.71217540  0.51140946  0.71559049     0.26600
H1342       H  0.82523422  0.62398271  0.70024589     0.21400
H1343       H  0.89010394  0.50963938  0.78515924     0.26700
H1344       H  0.86685100  0.52986756  0.69712933     0.15500
C1345       C  0.75268209  0.30762717  0.58889730    -0.11800
C1346       C  0.75024070  0.30812437  0.55888348     0.14800
C1347       C  0.73811651  0.33247504  0.54547665     0.01700
C1348       C  0.72943029  0.35590520  0.56227043    -0.16100
C1349       C  0.73314444  0.35596755  0.59225483    -0.10900
C1350       C  0.74411042  0.33100343  0.60562051     0.08400
C1351       C  0.76160229  0.28346466  0.54219248     0.09400
S1352       S  0.73409562  0.33541809  0.50701711    -0.25200
H1353       H  0.72086059  0.37470952  0.55169872     0.19700
S1354       S  0.74652914  0.32709182  0.64401185    -0.30900
H1355       H  0.76142226  0.28884120  0.59937318     0.10000
C1356       C  0.79136586  0.27883908  0.53986426     0.03200
C1357       C  0.80159414  0.25693236  0.52204381    -0.13200
C1358       C  0.78283325  0.23953695  0.50614096    -0.08900
C1359       C  0.75297197  0.24340809  0.50944103     0.06700
C1360       C  0.74268229  0.26528284  0.52739761    -0.14000
S1361       S  0.81649663  0.30241419  0.55758587    -0.30900
H1362       H  0.82446917  0.25437191  0.51908618     0.10900
S1363       S  0.72719438  0.22343959  0.48880783    -0.28000
H1364       H  0.71980435  0.26881588  0.52908151     0.08100
H1365       H  0.72051010  0.34138548  0.64896449     0.26600
H1366       H  0.84163163  0.29012797  0.54638340     0.21400
H1367       H  0.73984327  0.19677181  0.49466818     0.26700
H1368       H  0.75873139  0.31967099  0.49984474     0.15500
C1369       C  0.74780979  0.15491710  0.09121397    -0.11800
C1370       C  0.74956640  0.15328332  0.06113596     0.14800
C1371       C  0.74219306  0.12722071  0.04745705     0.01700
C1372       C  0.73252790  0.10396448  0.06391610    -0.16100
C1373       C  0.73133542  0.10543554  0.09400113    -0.10900
C1374       C  0.73878807  0.13144491  0.10772691     0.08400
C1375       C  0.76048109  0.17850936  0.04476889     0.09400
S1376       S  0.74611947  0.12165240  0.00928654    -0.25200
H1377       H  0.72728552  0.08401995  0.05322850     0.19700
S1378       S  0.73692389  0.13628764  0.14616630    -0.30900
H1379       H  0.75353420  0.17471285  0.10193694     0.10000
C1380       C  0.74346466  0.19331832  0.02457610     0.03200
C1381       C  0.75602985  0.21434220  0.00696815    -0.13200
C1382       C  0.78527101  0.22144489  0.00938536    -0.08900
C1383       C  0.80152670  0.20847802  0.03176323     0.06700
C1384       C  0.78897304  0.18707392  0.04887635    -0.14000
S1385       S  0.70575598  0.18532199  0.02109012    -0.30900
H1386       H  0.74320128  0.22443256  0.99043219     0.10900
S1387       S  0.83820753  0.21882066  0.03916161    -0.28000
H1388       H  0.80162986  0.17627497  0.06510734     0.08100
H1389       H  0.71430096  0.11705214  0.15087740     0.26600
H1390       H  0.69977654  0.20532688  0.99929144     0.21400
H1391       H  0.84366401  0.19878273  0.06106472     0.26700
H1392       H  0.76994524  0.13971558  0.00574727     0.15500
C1393       C  0.92214191  0.29897299  0.04596105    -0.11800
C1394       C  0.94520225  0.27994458  0.04737114     0.14800
C1395       C  0.94729660  0.25767574  0.02693278     0.01700
C1396       C  0.92690498  0.25580967  0.00479278    -0.16100
C1397       C  0.90404225  0.27532377  0.00298620    -0.10900
C1398       C  0.90135805  0.29663925  0.02454796     0.08400
C1399       C  0.96600822  0.28398883  0.07103239     0.09400
S1400       S  0.97548792  0.23126668  0.02763079    -0.25200
H1401       H  0.92916508  0.23925965  0.98866331     0.19700
S1402       S  0.87142542  0.32093378  0.02697042    -0.30900
H1403       H  0.92011629  0.31563228  0.06203199     0.10000
C1404       C  0.99263339  0.29741509  0.06659908     0.03200
C1405       C  0.01043969  0.30310749  0.09026074    -0.13200
C1406       C  0.00219580  0.29563861  0.11837279    -0.08900
C1407       C  0.97522100  0.28222861  0.12265492     0.06700
C1408       C  0.95757003  0.27663753  0.09892010    -0.14000
S1409       S  0.00349720  0.30805799  0.03091889    -0.30900
H1410       H  0.03097536  0.31335272  0.08680786     0.10900
S1411       S  0.96190729  0.27361387  0.15816027    -0.28000
H1412       H  0.93669167  0.26698697  0.10203415     0.08100
H1413       H  0.85098596  0.30006317  0.01955879     0.26600
H1414       H  0.03097192  0.31791923  0.03845990     0.21400
H1415       H  0.93743292  0.25835195  0.14938704     0.26700
H1416       H  0.98187087  0.23325950  0.05706742     0.15500
C1417       C  0.75951084  0.35029002  0.76540057    -0.11800
C1418       C  0.78473828  0.36184238  0.77662855     0.14800
C1419       C  0.80070891  0.38148492  0.75993650     0.01700
C1420       C  0.78969278  0.39086902  0.73343753    -0.16100
C1421       C  0.76301744  0.38113146  0.72336510    -0.10900
C1422       C  0.74865727  0.35931110  0.73901889     0.08400
C1423       C  0.79368515  0.35204151  0.80550253     0.09400
S1424       S  0.83444383  0.39636128  0.77164775    -0.25200
H1425       H  0.80100379  0.40746031  0.72173396     0.19700
S1426       S  0.71580174  0.34250388  0.72736736    -0.30900
H1427       H  0.74785479  0.33431097  0.77764066     0.10000
C1428       C  0.77846739  0.36003910  0.83041071     0.03200
C1429       C  0.78587149  0.34793168  0.85703757    -0.13200
C1430       C  0.80843879  0.32817355  0.85935254    -0.08900
C1431       C  0.82377941  0.32043879  0.83412091     0.06700
C1432       C  0.81615381  0.33247147  0.80763081    -0.14000
S1433       S  0.74982195  0.38594951  0.82826829    -0.30900
H1434       H  0.77420087  0.35406277  0.87616279     0.10900
S1435       S  0.85237865  0.29440654  0.83463109    -0.28000
H1436       H  0.82738902  0.32630433  0.78824702     0.08100
H1437       H  0.72037180  0.34713532  0.69802276     0.26600
H1438       H  0.74437329  0.38761766  0.85794849     0.21400
H1439       H  0.85599374  0.29175218  0.80474509     0.26700
H1440       H  0.83028826  0.39276251  0.80131703     0.15500
C1441       C  0.94669903  0.18976191  0.79119393    -0.11800
C1442       C  0.94948190  0.21846118  0.79967011     0.14800
C1443       C  0.96933042  0.23595575  0.78480211     0.01700
C1444       C  0.98668768  0.22409433  0.76311898    -0.16100
C1445       C  0.98437329  0.19511769  0.75509831    -0.10900
C1446       C  0.96314783  0.17812126  0.76877316     0.08400
C1447       C  0.93194141  0.22882956  0.82461545     0.09400
S1448       S  0.97364908  0.27352156  0.79249077    -0.25200
H1449       H  0.00265364  0.23752973  0.75293882     0.19700
S1450       S  0.95614699  0.14162770  0.75770860    -0.30900
H1451       H  0.93156393  0.17628063  0.80249806     0.10000
C1452       C  0.90173454  0.22656406  0.82464719     0.03200
C1453       C  0.88621271  0.23373405  0.84948037    -0.13200
C1454       C  0.89975486  0.24470039  0.87410788    -0.08900
C1455       C  0.92997166  0.24730613  0.87402868     0.06700
C1456       C  0.94564989  0.23929171  0.84946350    -0.14000
S1457       S  0.88259411  0.21574509  0.79264815    -0.30900
H1458       H  0.86308699  0.23161630  0.84942209     0.10900
S1459       S  0.94988792  0.25902110  0.90508045    -0.28000
H1460       H  0.96882253  0.24059441  0.84996994     0.08100
H1461       H  0.93281808  0.13640521  0.77609122     0.26600
H1462       H  0.85477176  0.22047253  0.80323943     0.21400
H1463       H  0.93172550  0.24603008  0.92537086     0.26700
H1464       H  0.94513858  0.27823898  0.80101757     0.15500
C1465       C  0.45526883  0.23459014  0.71083682    -0.11800
C1466       C  0.44959330  0.21907398  0.68553218     0.14800
C1467       C  0.46206507  0.19184967  0.68209526     0.01700
C1468       C  0.48014394  0.18095137  0.70337146    -0.16100
C1469       C  0.48633784  0.19628574  0.72871416    -0.10900
C1470       C  0.47353421  0.22349948  0.73247126     0.08400
C1471       C  0.43171567  0.23169972  0.66218396     0.09400
S1472       S  0.45648474  0.17015876  0.65048986    -0.25200
H1473       H  0.48990912  0.16027864  0.69966807     0.19700
S1474       S  0.47974915  0.24394144  0.76477540    -0.30900
H1475       H  0.44560638  0.25544935  0.71341222     0.10000
C1476       C  0.40161135  0.22912919  0.66219441     0.03200
C1477       C  0.38592980  0.23678084  0.63749014    -0.13200
C1478       C  0.39965106  0.24705539  0.61260653    -0.08900
C1479       C  0.42984469  0.25018186  0.61298607     0.06700
C1480       C  0.44540055  0.24274856  0.63773082    -0.14000
S1481       S  0.38333771  0.21476857  0.69319288    -0.30900
H1482       H  0.36281051  0.23468765  0.63750519     0.10900
S1483       S  0.45007813  0.26150549  0.58202114    -0.28000
H1484       H  0.46856384  0.24425208  0.63744232     0.08100
H1485       H  0.46201890  0.26722793  0.75763665     0.26600
H1486       H  0.35544480  0.21627114  0.68179117     0.21400
H1487       H  0.43337656  0.24622707  0.56204931     0.26700
H1488       H  0.42774654  0.17797811  0.64610210     0.15500
C1489       C  0.46087822  0.19164619  0.89222747    -0.11800
C1490       C  0.46730865  0.17810967  0.91830185     0.14800
C1491       C  0.49142629  0.15989758  0.91974409     0.01700
C1492       C  0.50815002  0.15531931  0.89508531    -0.16100
C1493       C  0.50165494  0.16854082  0.86862933    -0.10900
C1494       C  0.47739244  0.18699731  0.86749379     0.08400
C1495       C  0.44648050  0.18079957  0.94234952     0.09400
S1496       S  0.50161191  0.14103544  0.95204151    -0.25200
H1497       H  0.52656592  0.14130715  0.89674170     0.19700
S1498       S  0.46523750  0.20466067  0.83525750    -0.30900
H1499       H  0.44212409  0.20526881  0.89089205     0.10000
C1500       C  0.44894967  0.20206840  0.96368554     0.03200
C1501       C  0.42856600  0.20340298  0.98596179    -0.13200
C1502       C  0.40547617  0.18404575  0.98721862    -0.08900
C1503       C  0.40244672  0.16354826  0.96491303     0.06700
C1504       C  0.42308267  0.16206993  0.94301255    -0.14000
S1505       S  0.47842860  0.22705224  0.96282137    -0.30900
H1506       H  0.43093701  0.21922880  0.00276643     0.10900
S1507       S  0.37164798  0.14009268  0.96299174    -0.28000
H1508       H  0.42095534  0.14637403  0.92604987     0.08100
H1509       H  0.46633122  0.17981428  0.81830690     0.26600
H1510       H  0.46981575  0.24341866  0.98666336     0.21400
H1511       H  0.37971976  0.12506814  0.93809964     0.26700
H1512       H  0.48876600  0.15965831  0.97183805     0.15500
C1513       C  0.72938315  0.20924505  0.85964566    -0.11800
C1514       C  0.71298262  0.19175482  0.87777472     0.14800
C1515       C  0.72489305  0.18246586  0.90417193     0.01700
C1516       C  0.75192924  0.19262506  0.91267959    -0.16100
C1517       C  0.76717460  0.21217188  0.89555927    -0.10900
C1518       C  0.75631355  0.21931438  0.86810191     0.08400
C1519       C  0.68374064  0.18365790  0.86811505     0.09400
S1520       S  0.70618115  0.15914176  0.92873532    -0.25200
H1521       H  0.75991081  0.18717120  0.93385843     0.19700
S1522       S  0.77544633  0.24208428  0.84331652    -0.30900
H1523       H  0.72081590  0.21561735  0.83894808     0.10000
C1524       C  0.66129908  0.20381612  0.86702285     0.03200
C1525       C  0.63462166  0.19594384  0.85541615    -0.13200
C1526       C  0.62963910  0.16818126  0.84480061    -0.08900
C1527       C  0.65229333  0.14767847  0.84680925     0.06700
C1528       C  0.67885392  0.15581275  0.85842862    -0.14000
S1529       S  0.66667002  0.23965562  0.88051534    -0.30900
H1530       H  0.61769915  0.21175712  0.85418991     0.10900
S1531       S  0.64861936  0.11100929  0.83466275    -0.28000
H1532       H  0.69624852  0.14051852  0.85964613     0.08100
H1533       H  0.80292293  0.23581474  0.85411631     0.26600
H1534       H  0.63809210  0.24880631  0.87767314     0.21400
H1535       H  0.67765794  0.10317921  0.83659809     0.26700
H1536       H  0.67827417  0.16713236  0.92073476     0.15500
C1537       C  0.59779728  0.25729580  0.69480006    -0.11800
C1538       C  0.62049732  0.27078134  0.70934070     0.14800
C1539       C  0.63319423  0.25676986  0.73297853     0.01700
C1540       C  0.62198412  0.23068575  0.74254740    -0.16100
C1541       C  0.59834691  0.21760113  0.72897322    -0.10900
C1542       C  0.58687389  0.23080165  0.70404795     0.08400
C1543       C  0.63027490  0.29960830  0.69985772     0.09400
S1544       S  0.66323660  0.27150090  0.75242900    -0.25200
H1545       H  0.63134509  0.22093939  0.76150098     0.19700
S1546       S  0.55701334  0.21623932  0.68439719    -0.30900
H1547       H  0.58816085  0.26778196  0.67639062     0.10000
C1548       C  0.64514208  0.30327083  0.67387584     0.03200
C1549       C  0.65501604  0.33052753  0.66618560    -0.13200
C1550       C  0.65088042  0.35464783  0.68400764    -0.08900
C1551       C  0.63593744  0.35084047  0.71025145     0.06700
C1552       C  0.62567502  0.32343775  0.71768956    -0.14000
S1553       S  0.65287569  0.27291606  0.65109827    -0.30900
H1554       H  0.66667410  0.33279795  0.64622815     0.10900
S1555       S  0.62937696  0.38035187  0.73443317    -0.28000
H1556       H  0.61416025  0.32037787  0.73764210     0.08100
H1557       H  0.57006464  0.18932560  0.68085923     0.26600
H1558       H  0.66741178  0.28800811  0.62938436     0.21400
H1559       H  0.61893659  0.36402593  0.75757059     0.26700
H1560       H  0.67603348  0.28488893  0.72861251     0.15500
C1561       C  0.66854040  0.08254311  0.73253444    -0.11800
C1562       C  0.66875587  0.05268718  0.73534380     0.14800
C1563       C  0.64525316  0.03911469  0.74891984     0.01700
C1564       C  0.62211436  0.05558808  0.75898373    -0.16100
C1565       C  0.62142532  0.08543517  0.75522837    -0.10900
C1566       C  0.64546948  0.09898635  0.74244133     0.08400
C1567       C  0.69367656  0.03637318  0.72377059     0.09400
S1568       S  0.64302357  0.00080274  0.75315351    -0.25200
H1569       H  0.60399320  0.04486514  0.76874486     0.19700
S1570       S  0.64866155  0.13731336  0.73896755    -0.30900
H1571       H  0.68666452  0.09317013  0.72263342     0.10000
C1572       C  0.69826529  0.03387007  0.69390861     0.03200
C1573       C  0.72026712  0.01611242  0.68371569    -0.13200
C1574       C  0.73819499  0.00097331  0.70264369    -0.08900
C1575       C  0.73481261  0.00489054  0.73254261     0.06700
C1576       C  0.71254325  0.02250201  0.74279616    -0.14000
S1577       S  0.67475089  0.05145432  0.66858386    -0.30900
H1578       H  0.72265586  0.01282678  0.66080409     0.10900
S1579       S  0.75695921  0.98549274  0.75773892    -0.28000
H1580       H  0.70909618  0.02470596  0.76567988     0.08100
H1581       H  0.63584893  0.14343083  0.76563725     0.26600
H1582       H  0.69078943  0.04518123  0.64378342     0.21400
H1583       H  0.74684382  0.99915475  0.78267497     0.26700
H1584       H  0.65782875  0.99387165  0.72779987     0.15500
C1585       C  0.03476600  0.72606802  0.20211405    -0.11800
C1586       C  0.05090478  0.74475917  0.18486865     0.14800
C1587       C  0.04915636  0.77443310  0.19010610     0.01700
C1588       C  0.03142094  0.78468908  0.21202270    -0.16100
C1589       C  0.01413235  0.76630944  0.22875599    -0.10900
C1590       C  0.01677015  0.73637997  0.22409841     0.08400
C1591       C  0.06913602  0.73305375  0.16134644     0.09400
S1592       S  0.06813159  0.80064195  0.16885828    -0.25200
H1593       H  0.03020361  0.80764445  0.21494162     0.19700
S1594       S  0.99796053  0.71011932  0.24517421    -0.30900
H1595       H  0.03626426  0.70323922  0.19845515     0.10000
C1596       C  0.09932519  0.73356725  0.16297455     0.03200
C1597       C  0.11566490  0.72545121  0.13894493    -0.13200
C1598       C  0.10256615  0.71646082  0.11324999    -0.08900
C1599       C  0.07229358  0.71547495  0.11188392     0.06700
C1600       C  0.05599349  0.72343053  0.13596207    -0.14000
S1601       S  0.11705319  0.74448944  0.19570934    -0.30900
H1602       H  0.13883908  0.72599108  0.14017193     0.10900
S1603       S  0.05318040  0.70617102  0.07953155    -0.28000
H1604       H  0.03281356  0.72332889  0.13448055     0.08100
H1605       H  0.00443660  0.72343371  0.27152359     0.26600
H1606       H  0.14524001  0.73924489  0.18639923     0.21400
H1607       H  0.07256241  0.71959747  0.06073108     0.26700
H1608       H  0.06729206  0.78540422  0.14284613     0.15500
C1609       C  0.05565042  0.90177720  0.30642425    -0.11800
C1610       C  0.05631537  0.92657654  0.28945355     0.14800
C1611       C  0.03517852  0.93012146  0.26787781     0.01700
C1612       C  0.01345214  0.90950024  0.26460519    -0.16100
C1613       C  0.01196936  0.88539354  0.28263121    -0.10900
C1614       C  0.03412174  0.88116211  0.30312294     0.08400
C1615       C  0.07974297  0.94776413  0.29459007     0.09400
S1616       S  0.03409438  0.96089377  0.24451287    -0.25200
H1617       H  0.99684990  0.91299583  0.24866279     0.19700
S1618       S  0.03688492  0.84951474  0.32520433    -0.30900
H1619       H  0.07227426  0.89835808  0.32235906     0.10000
C1620       C  0.08207000  0.96263955  0.32087788     0.03200
C1621       C  0.10529626  0.98121452  0.32555872    -0.13200
C1622       C  0.12645239  0.98566815  0.30449923    -0.08900
C1623       C  0.12398684  0.97075511  0.27800647     0.06700
C1624       C  0.10076403  0.95201268  0.27348545    -0.14000
S1625       S  0.05490105  0.95874195  0.34824699    -0.30900
H1626       H  0.10670848  0.99275383  0.34569953     0.10900
S1627       S  0.15088751  0.97398579  0.25024350    -0.28000
H1628       H  0.09913575  0.94014166  0.25358049     0.08100
H1629       H  0.02687042  0.83062096  0.30389439     0.26600
H1630       H  0.06893887  0.97467718  0.36969063     0.21400
H1631       H  0.13676826  0.95754634  0.22924177     0.26700
H1632       H  0.04571858  0.98033577  0.26439406     0.15500
C1633       C  0.85232346  0.92575138  0.24923259    -0.11800
C1634       C  0.82988434  0.91137474  0.23502490     0.14800
C1635       C  0.83305991  0.88181957  0.22938358     0.01700
C1636       C  0.85867331  0.86794208  0.23651356    -0.16100
C1637       C  0.88116959  0.88217798  0.25067726    -0.10900
C1638       C  0.87765447  0.91152523  0.25732870     0.08400
C1639       C  0.80500331  0.92814452  0.22358022     0.09400
S1640       S  0.80496341  0.86027542  0.21381429    -0.25200
H1641       H  0.86063089  0.84532634  0.23176311     0.19700
S1642       S  0.90514391  0.93243731  0.27459677    -0.30900
H1643       H  0.85050006  0.94852450  0.25323584     0.10000
C1644       C  0.78747215  0.94529286  0.24128444     0.03200
C1645       C  0.76589023  0.96232014  0.22880252    -0.13200
C1646       C  0.76144857  0.96307827  0.19882070    -0.08900
C1647       C  0.77739122  0.94382713  0.18148513     0.06700
C1648       C  0.79931001  0.92734171  0.19395190    -0.14000
S1649       S  0.79234892  0.94552133  0.27981336    -0.30900
H1650       H  0.75320029  0.97607258  0.24251000     0.10900
S1651       S  0.77016090  0.93940312  0.14352626    -0.28000
H1652       H  0.81255747  0.91397491  0.18038139     0.08100
H1653       H  0.92794145  0.91974990  0.25948836     0.26600
H1654       H  0.77350664  0.96827210  0.28568768     0.21400
H1655       H  0.78752270  0.91518356  0.13917935     0.26700
H1656       H  0.78216098  0.87647171  0.22500361     0.15500
C1657       C  0.74311928  0.83131973  0.55904053    -0.11800
C1658       C  0.75061826  0.80458411  0.57049062     0.14800
C1659       C  0.76860656  0.80365299  0.59492566     0.01700
C1660       C  0.77880055  0.82932396  0.60706310    -0.16100
C1661       C  0.77082463  0.85622525  0.59590275    -0.10900
C1662       C  0.75291390  0.85690390  0.57127409     0.08400
C1663       C  0.73979123  0.77848018  0.55551811     0.09400
S1664       S  0.77841927  0.77052160  0.61217095    -0.25200
H1665       H  0.79214333  0.82827454  0.62612855     0.19700
S1666       S  0.74253446  0.88958651  0.55360216    -0.30900
H1667       H  0.72963048  0.83224312  0.54003469     0.10000
C1668       C  0.71043628  0.77134235  0.55600881     0.03200
C1669       C  0.69972973  0.75082516  0.53672184    -0.13200
C1670       C  0.71783310  0.73662305  0.51730327    -0.08900
C1671       C  0.74760461  0.74202293  0.51847307     0.06700
C1672       C  0.75826440  0.76293662  0.53753126    -0.14000
S1673       S  0.68634109  0.78937938  0.58032767    -0.30900
H1674       H  0.67686762  0.74702580  0.53558297     0.10900
S1675       S  0.77162469  0.72456825  0.49363036    -0.28000
H1676       H  0.78084077  0.76844117  0.53726867     0.08100
H1677       H  0.76916479  0.90271623  0.55800405     0.26600
H1678       H  0.66243848  0.77177067  0.57510782     0.21400
H1679       H  0.79668800  0.73896427  0.50218382     0.26700
H1680       H  0.75341521  0.75548527  0.60465746     0.15500
C1681       C  0.75580124  0.78094934  0.36114365    -0.11800
C1682       C  0.78173788  0.78328942  0.37643597     0.14800
C1683       C  0.78146608  0.77996327  0.40651968     0.01700
C1684       C  0.75684968  0.76958456  0.41984200    -0.16100
C1685       C  0.73191299  0.76334053  0.40404037    -0.10900
C1686       C  0.73054434  0.77166659  0.37493543     0.08400
C1687       C  0.80910966  0.78716258  0.36068412     0.09400
S1688       S  0.81238278  0.78681108  0.42880283    -0.25200
H1689       H  0.75768805  0.76475819  0.44261535     0.19700
S1690       S  0.69734978  0.76958549  0.35519951    -0.30900
H1691       H  0.75572159  0.78506357  0.33823518     0.10000
C1692       C  0.82986963  0.76520985  0.35943668     0.03200
C1693       C  0.85650423  0.77049450  0.34633575    -0.13200
C1694       C  0.86280835  0.79719247  0.33385607    -0.08900
C1695       C  0.84092835  0.81856252  0.33383457     0.06700
C1696       C  0.81477140  0.81339956  0.34755251    -0.14000
S1697       S  0.82229526  0.73026997  0.37428436    -0.30900
H1698       H  0.87253262  0.75380595  0.34607771     0.10900
S1699       S  0.84404887  0.85272171  0.31614114    -0.28000
H1700       H  0.79863060  0.83005231  0.34804885     0.08100
H1701       H  0.70778815  0.78145229  0.32946714     0.26600
H1702       H  0.84858002  0.71748702  0.36699476     0.21400
H1703       H  0.85222425  0.84011178  0.28998377     0.26700
H1704       H  0.82444031  0.80783221  0.41087590     0.15500
C1705       C  0.53452791  0.73362196  0.28835747    -0.11800
C1706       C  0.55677246  0.75152269  0.29793925     0.14800
C1707       C  0.56040952  0.77853890  0.28456958     0.01700
C1708       C  0.54017354  0.78808370  0.26432835    -0.16100
C1709       C  0.51726429  0.77059347  0.25576673    -0.10900
C1710       C  0.51493338  0.74279853  0.26732106     0.08400
C1711       C  0.57476988  0.74162723  0.32264091     0.09400
S1712       S  0.59022276  0.80184988  0.29242343    -0.25200
H1713       H  0.54205062  0.80946355  0.25551326     0.19700
S1714       S  0.48586251  0.71960264  0.25665804    -0.30900
H1715       H  0.53187177  0.71282969  0.29823292     0.10000
C1716       C  0.57474300  0.75586522  0.34938375     0.03200
C1717       C  0.59152707  0.74524504  0.37214361    -0.13200
C1718       C  0.60748006  0.71974187  0.36959122    -0.08900
C1719       C  0.60630739  0.70475045  0.34296811     0.06700
C1720       C  0.59041570  0.71616540  0.31991473    -0.14000
S1721       S  0.55194841  0.78658370  0.35527287    -0.30900
H1722       H  0.59161776  0.75665607  0.39237136     0.10900
S1723       S  0.62422796  0.67082738  0.33759641    -0.28000
H1724       H  0.58976020  0.70498413  0.29954450     0.08100
H1725       H  0.49571726  0.69497006  0.27098070     0.26600
H1726       H  0.55770893  0.78987401  0.38476386     0.21400
H1727       H  0.61543489  0.66603194  0.30908626     0.26700
H1728       H  0.60926130  0.78010241  0.30089864     0.15500
C1729       C  0.71391843  0.56171726  0.49667096    -0.11800
C1730       C  0.69888084  0.55851677  0.52249068     0.14800
C1731       C  0.67819120  0.57925264  0.53022997     0.01700
C1732       C  0.67281505  0.60242657  0.51183891    -0.16100
C1733       C  0.68806855  0.60583664  0.48607163    -0.10900
C1734       C  0.70855342  0.58484124  0.47829902     0.08400
C1735       C  0.70395943  0.53242560  0.53993129     0.09400
S1736       S  0.65798966  0.57745739  0.56324130    -0.25200
H1737       H  0.65713191  0.61836396  0.51810265     0.19700
S1738       S  0.72728853  0.58530796  0.44446284    -0.30900
H1739       H  0.72936113  0.54557481  0.49037501     0.10000
C1740       C  0.68404315  0.50983284  0.54003400     0.03200
C1741       C  0.68852293  0.48638592  0.55823233    -0.13200
C1742       C  0.71248140  0.48490213  0.57656937    -0.08900
C1743       C  0.73309000  0.50703490  0.57558852     0.06700
C1744       C  0.72870013  0.53047882  0.55704567    -0.14000
S1745       S  0.65261100  0.51109112  0.51733273    -0.30900
H1746       H  0.67276756  0.46937702  0.55883278     0.10900
S1747       S  0.76365918  0.50682720  0.59941246    -0.28000
H1748       H  0.74396635  0.54791319  0.55660605     0.08100
H1749       H  0.70338012  0.59482289  0.42875054     0.26600
H1750       H  0.64044123  0.48513785  0.52658972     0.21400
H1751       H  0.77502012  0.53339358  0.59090520     0.26700
H1752       H  0.67844558  0.56216140  0.57924023     0.15500
C1753       C  0.70551307  0.43045216  0.20591614    -0.11800
C1754       C  0.69524241  0.43683355  0.23351187     0.14800
C1755       C  0.70841808  0.45922579  0.24916617     0.01700
C1756       C  0.72932742  0.47632485  0.23584837    -0.16100
C1757       C  0.73825721  0.47111373  0.20742511    -0.10900
C1758       C  0.72708261  0.44685005  0.19298666     0.08400
C1759       C  0.67043224  0.41999222  0.24463852     0.09400
S1760       S  0.69928393  0.46741261  0.28593248    -0.25200
H1761       H  0.73789966  0.49448464  0.24749000     0.19700
S1762       S  0.73938907  0.43547453  0.15807014    -0.30900
H1763       H  0.69629165  0.41270478  0.19409796     0.10000
C1764       C  0.64321675  0.43249106  0.24920864     0.03200
C1765       C  0.62003433  0.41518701  0.25781735    -0.13200
C1766       C  0.62311804  0.38543975  0.26084567    -0.08900
C1767       C  0.65044751  0.37303113  0.25634278     0.06700
C1768       C  0.67361618  0.39037039  0.24836753    -0.14000
S1769       S  0.63738006  0.47003222  0.24193496    -0.30900
H1770       H  0.59906939  0.42463000  0.26089352     0.10900
S1771       S  0.65740814  0.33522011  0.26026332    -0.28000
H1772       H  0.69435727  0.38060740  0.24469847     0.08100
H1773       H  0.76792785  0.44419366  0.16238578     0.26600
H1774       H  0.60800400  0.47049994  0.24863840     0.21400
H1775       H  0.63647240  0.33003194  0.28120779     0.26700
H1776       H  0.68960159  0.43988206  0.29326761     0.15500
C1777       C  0.81099143  0.45027845  0.04298922    -0.11800
C1778       C  0.78733220  0.43234260  0.03880840     0.14800
C1779       C  0.76183460  0.43813684  0.05435581     0.01700
C1780       C  0.76112478  0.46088875  0.07427289    -0.16100
C1781       C  0.78511891  0.47860266  0.07860286    -0.10900
C1782       C  0.80993256  0.47360858  0.06166709     0.08400
C1783       C  0.79117308  0.40696492  0.01955060     0.09400
S1784       S  0.72959081  0.41737094  0.04982616    -0.25200
H1785       H  0.74189282  0.46443197  0.08680429     0.19700
S1786       S  0.84102909  0.49656980  0.06197152    -0.30900
H1787       H  0.83069175  0.44611234  0.03137491     0.10000
C1788       C  0.80070033  0.40989849  0.99084046     0.03200
C1789       C  0.80816463  0.38544404  0.97487756    -0.13200
C1790       C  0.80549510  0.35779914  0.98646895    -0.08900
C1791       C  0.79481165  0.35482739  0.01488152     0.06700
C1792       C  0.78826482  0.37937803  0.03110038    -0.14000
S1793       S  0.80253775  0.44477154  0.97409226    -0.30900
H1794       H  0.81556605  0.38782830  0.95295492     0.10900
S1795       S  0.79065260  0.32005102  0.03148099    -0.28000
H1796       H  0.78148261  0.37717226  0.05323332     0.08100
H1797       H  0.82510936  0.52209804  0.06369553     0.26600
H1798       H  0.81250717  0.43551696  0.94713969     0.21400
H1799       H  0.77811466  0.32949652  0.05725994     0.26700
H1800       H  0.73484623  0.40958664  0.02112690     0.15500
C1801       C  0.89376261  0.43964810  0.18750154    -0.11800
C1802       C  0.92116726  0.45174346  0.19046237     0.14800
C1803       C  0.92456679  0.48145939  0.18561615     0.01700
C1804       C  0.90089614  0.49813669  0.17763010    -0.16100
C1805       C  0.87344519  0.48616660  0.17514490    -0.10900
C1806       C  0.86997753  0.45644499  0.17992196     0.08400
C1807       C  0.94626589  0.43255364  0.19524501     0.09400
S1808       S  0.95843828  0.49955844  0.18996929    -0.25200
H1809       H  0.90375570  0.52095004  0.17440548     0.19700
S1810       S  0.83605490  0.43847106  0.17544177    -0.30900
H1811       H  0.89102638  0.41679160  0.19035128     0.10000
C1812       C  0.94990637  0.41610047  0.22051645     0.03200
C1813       C  0.97388900  0.39785979  0.22319238    -0.13200
C1814       C  0.99429306  0.39577783  0.20107952    -0.08900
C1815       C  0.99107512  0.41339461  0.17646236     0.06700
C1816       C  0.96700067  0.43089185  0.17359994    -0.14000
S1817       S  0.92419489  0.41846738  0.24937832    -0.30900
H1818       H  0.97627685  0.38454208  0.24208163     0.10900
S1819       S  0.01729926  0.41523096  0.14804290    -0.28000
H1820       H  0.96452314  0.44364940  0.15429390     0.08100
H1821       H  0.82604742  0.45629233  0.15320767     0.26600
H1822       H  0.93777884  0.39893371  0.26794302     0.21400
H1823       H  0.04111531  0.41190603  0.16632120     0.26700
H1824       H  0.96917120  0.48116949  0.21136068     0.15500
C1825       C  0.86880349  0.66109264  0.16121143    -0.11800
C1826       C  0.87054209  0.66970262  0.18996568     0.14800
C1827       C  0.86239440  0.65022920  0.21174638     0.01700
C1828       C  0.85230451  0.62295937  0.20429553    -0.16100
C1829       C  0.85026136  0.61424143  0.17545749    -0.10900
C1830       C  0.85910560  0.63366753  0.15361734     0.08400
C1831       C  0.88107362  0.69902300  0.19664060     0.09400
S1832       S  0.86425535  0.65886443  0.24948379    -0.25200
H1833       H  0.84552744  0.60859293  0.22127248     0.19700
S1834       S  0.85938817  0.62389718  0.11596044    -0.30900
H1835       H  0.87534477  0.67603474  0.14464224     0.10000
C1836       C  0.90991734  0.70688875  0.19193072     0.03200
C1837       C  0.91985383  0.73349671  0.20186675    -0.13200
C1838       C  0.90169139  0.75219018  0.21685687    -0.08900
C1839       C  0.87232395  0.74526573  0.21940225     0.06700
C1840       C  0.86232908  0.71884561  0.20927138    -0.14000
S1841       S  0.93482766  0.68195664  0.17594042    -0.30900
H1842       H  0.94243720  0.73862222  0.20028462     0.10900
S1843       S  0.84691456  0.76883610  0.23645328    -0.28000
H1844       H  0.83999739  0.71321032  0.21225844     0.08100
H1845       H  0.86587874  0.65111761  0.10481246     0.26600
H1846       H  0.95906936  0.69982804  0.17692546     0.21400
H1847       H  0.86266613  0.79400652  0.23164585     0.26700
H1848       H  0.88838747  0.67676393  0.24752696     0.15500
C1849       C  0.74100288  0.62254611  0.26248966    -0.11800
C1850       C  0.71865412  0.60919158  0.27753639     0.14800
C1851       C  0.70348780  0.58666499  0.26391190     0.01700
C1852       C  0.71357262  0.57555914  0.23772978    -0.16100
C1853       C  0.73745987  0.58759557  0.22390306    -0.10900
C1854       C  0.74988409  0.61265545  0.23561611     0.08400
C1855       C  0.71217494  0.61958544  0.30717213     0.09400
S1856       S  0.67125522  0.57122915  0.27863186    -0.25200
H1857       H  0.70342683  0.55671482  0.22876691     0.19700
S1858       S  0.77749111  0.63282968  0.21750376    -0.30900
H1859       H  0.75200168  0.64068137  0.27197869     0.10000
C1860       C  0.71398091  0.60165319  0.33165141     0.03200
C1861       C  0.70855494  0.61310044  0.35909594    -0.13200
C1862       C  0.70309144  0.64239034  0.36284938    -0.08900
C1863       C  0.70226378  0.66037982  0.33854963     0.06700
C1864       C  0.70644360  0.64882020  0.31107327    -0.14000
S1865       S  0.72512994  0.56475197  0.32842813    -0.30900
H1866       H  0.70932687  0.59938350  0.37777328     0.10900
S1867       S  0.69512382  0.69806842  0.34228192    -0.28000
H1868       H  0.70560565  0.66270514  0.29245138     0.08100
H1869       H  0.76914926  0.62487535  0.18954475     0.26600
H1870       H  0.72293590  0.55768246  0.35773700     0.21400
H1871       H  0.68892234  0.70336529  0.31316341     0.26700
H1872       H  0.66295928  0.59551919  0.29437630     0.15500
C1873       C  0.75201875  0.62746026  0.04299259    -0.11800
C1874       C  0.74592047  0.65376524  0.05646822     0.14800
C1875       C  0.74798786  0.65513624  0.08683854     0.01700
C1876       C  0.75484590  0.63046346  0.10273549    -0.16100
C1877       C  0.76108920  0.60429276  0.08923330    -0.10900
C1878       C  0.75981607  0.60300143  0.05887672     0.08400
C1879       C  0.73549142  0.67857891  0.03860204     0.09400
S1880       S  0.74314148  0.68792320  0.10667653    -0.25200
H1881       H  0.75617047  0.63194094  0.12594151     0.19700
S1882       S  0.76664194  0.57051373  0.03915517    -0.30900
H1883       H  0.75004321  0.62574757  0.01987228     0.10000
C1884       C  0.75132956  0.68965607  0.01516583     0.03200
C1885       C  0.73951100  0.71148684  0.99782417    -0.13200
C1886       C  0.71221995  0.72307372  0.00343295    -0.08900
C1887       C  0.69744715  0.71343160  0.02823763     0.06700
C1888       C  0.70877168  0.69100615  0.04487887    -0.14000
S1889       S  0.78674319  0.67622041  0.00724860    -0.30900
H1890       H  0.75116797  0.71875052  0.97911514     0.10900
S1891       S  0.66424618  0.72915051  0.04024115    -0.28000
H1892       H  0.69651001  0.68311804  0.06298173     0.08100
H1893       H  0.75419984  0.55210569  0.05954942     0.26600
H1894       H  0.79327126  0.69594437  0.98537315     0.21400
H1895       H  0.67099283  0.75700633  0.03089343     0.26700
H1896       H  0.75346461  0.70605684  0.08488608     0.15500
C1897       C  0.53775945  0.73381069  0.77190537    -0.11800
C1898       C  0.54615779  0.71664331  0.79531818     0.14800
C1899       C  0.53701341  0.68789685  0.79611522     0.01700
C1900       C  0.52026822  0.67691209  0.77376783    -0.16100
C1901       C  0.51111772  0.69396414  0.75045732    -0.10900
C1902       C  0.52060519  0.72279833  0.74945452     0.08400
C1903       C  0.56450942  0.72867950  0.81872557     0.09400
S1904       S  0.54526290  0.66412992  0.82558710    -0.25200
H1905       H  0.51321491  0.65490094  0.77551700     0.19700
S1906       S  0.51216949  0.74641601  0.72005130    -0.30900
H1907       H  0.54486412  0.75586789  0.77097100     0.10000
C1908       C  0.59331603  0.72022211  0.82210542     0.03200
C1909       C  0.60867637  0.72863086  0.84672855    -0.13200
C1910       C  0.59620181  0.74591202  0.86816389    -0.08900
C1911       C  0.56739622  0.75488707  0.86436870     0.06700
C1912       C  0.55201158  0.74623750  0.83972358    -0.14000
S1913       S  0.61058966  0.69872178  0.79490759    -0.30900
H1914       H  0.63075442  0.72199366  0.84909122     0.10900
S1915       S  0.54917987  0.77560223  0.89156035    -0.28000
H1916       H  0.52973558  0.75221436  0.83725106     0.08100
H1917       H  0.51513946  0.72523185  0.69877254     0.26600
H1918       H  0.63694926  0.69541606  0.80922251     0.21400
H1919       H  0.52303109  0.77881045  0.87684843     0.26700
H1920       H  0.54433675  0.68506991  0.84723243     0.15500
C1921       C  0.35446654  0.53282971  0.73096776    -0.11800
C1922       C  0.33057965  0.54590416  0.74390006     0.14800
C1923       C  0.33087045  0.57595385  0.74759222     0.01700
C1924       C  0.35509199  0.59179731  0.73964797    -0.16100
C1925       C  0.37886424  0.57887953  0.72643165    -0.10900
C1926       C  0.37838599  0.54887251  0.72210791     0.08400
C1927       C  0.30730516  0.52758796  0.75627564     0.09400
S1928       S  0.30069527  0.59559536  0.76161850    -0.25200
H1929       H  0.35491152  0.61476099  0.74291310     0.19700
S1930       S  0.40822634  0.52942738  0.70725327    -0.30900
H1931       H  0.35491804  0.50976668  0.72864054     0.10000
C1932       C  0.29123840  0.50809922  0.73956307     0.03200
C1933       C  0.27084999  0.49026256  0.75294446    -0.13200
C1934       C  0.26568693  0.49162943  0.78275472    -0.08900
C1935       C  0.28066365  0.51250383  0.79909616     0.06700
C1936       C  0.30159992  0.52955357  0.78580807    -0.14000
S1937       S  0.29623532  0.50623287  0.70111277    -0.30900
H1938       H  0.25938569  0.47464826  0.74016507     0.10900
S1939       S  0.27296774  0.51857504  0.83675044    -0.28000
H1940       H  0.31379166  0.54462956  0.79854090     0.08100
H1941       H  0.42937307  0.54601534  0.72093464     0.26600
H1942       H  0.27669567  0.48389373  0.69595526     0.21400
H1943       H  0.29350181  0.54006681  0.84160887     0.26700
H1944       H  0.27966735  0.57660080  0.75136037     0.15500
C1945       C  0.52970926  0.53216136  0.67238500    -0.11800
C1946       C  0.55277878  0.53445073  0.69157726     0.14800
C1947       C  0.55123944  0.55496190  0.71392933     0.01700
C1948       C  0.52709159  0.57290150  0.71612488    -0.16100
C1949       C  0.50422947  0.57086136  0.69653446    -0.10900
C1950       C  0.50552740  0.54971169  0.67476148     0.08400
C1951       C  0.57834655  0.51587029  0.68664107     0.09400
S1952       S  0.57948822  0.55963773  0.73997909    -0.25200
H1953       H  0.52654277  0.58914943  0.73273533     0.19700
S1954       S  0.47700932  0.54377894  0.64924548    -0.30900
H1955       H  0.53063115  0.51655612  0.65517709     0.10000
C1956       C  0.57642984  0.48572584  0.68813850     0.03200
C1957       C  0.60034978  0.46887517  0.68105834    -0.13200
C1958       C  0.62640695  0.48141587  0.67282263    -0.08900
C1959       C  0.62834560  0.51157036  0.67129266     0.06700
C1960       C  0.60441336  0.52840936  0.67826617    -0.14000
S1961       S  0.54388488  0.46864012  0.70026984    -0.30900
H1962       H  0.59904619  0.44580212  0.68273035     0.10900
S1963       S  0.66036791  0.52973772  0.65953234    -0.28000
H1964       H  0.60591450  0.55149416  0.67652682     0.08100
H1965       H  0.45472240  0.55146791  0.66796656     0.26600
H1966       H  0.55261497  0.44029066  0.69511886     0.21400
H1967       H  0.66927332  0.50831772  0.64028475     0.26700
H1968       H  0.58918661  0.53116363  0.73947736     0.15500
C1969       C  0.52405351  0.69873673  0.58297677    -0.11800
C1970       C  0.53465094  0.67505704  0.56791942     0.14800
C1971       C  0.52455147  0.64742706  0.57504796     0.01700
C1972       C  0.50381096  0.64420253  0.59666605    -0.16100
C1973       C  0.49326091  0.66792103  0.61193898    -0.10900
C1974       C  0.50338042  0.69557071  0.60455537     0.08400
C1975       C  0.55527253  0.68016730  0.54414873     0.09400
S1976       S  0.53735515  0.61547748  0.55750642    -0.25200
H1977       H  0.49650261  0.62288612  0.60219777     0.19700
S1978       S  0.48983430  0.72787857  0.62077963    -0.30900
H1979       H  0.53146316  0.71999995  0.57734990     0.10000
C1980       C  0.54626525  0.68104639  0.51523258     0.03200
C1981       C  0.56646697  0.68603271  0.49337564    -0.13200
C1982       C  0.59553519  0.69056574  0.49986313    -0.08900
C1983       C  0.60447581  0.68940155  0.52895346     0.06700
C1984       C  0.58424091  0.68471591  0.55070877    -0.14000
S1985       S  0.50891499  0.67630082  0.50626928    -0.30900
H1986       H  0.55959225  0.68667575  0.47116533     0.10900
S1987       S  0.64153056  0.69204154  0.53969341    -0.28000
H1988       H  0.59122408  0.68387600  0.57290039     0.08100
H1989       H  0.46128270  0.71829679  0.62225836     0.26600
H1990       H  0.51153578  0.68231623  0.47676519     0.21400
H1991       H  0.65249553  0.67687811  0.51603582     0.26700
H1992       H  0.56481665  0.62584665  0.55084095     0.15500
C1993       C  0.20073886  0.03612668  0.78077512    -0.11800
C1994       C  0.19105499  0.03053969  0.75277587     0.14800
C1995       C  0.20454784  0.00852342  0.73690466     0.01700
C1996       C  0.22558656  0.99140217  0.75007929    -0.16100
C1997       C  0.23432356  0.99596504  0.77873129    -0.10900
C1998       C  0.22222267  0.01943118  0.79383453     0.08400
C1999       C  0.16680676  0.04813214  0.74125572     0.09400
S2000       S  0.19590979  0.00099431  0.69985745    -0.25200
H2001       H  0.23469249  0.97384499  0.73792861     0.19700
S2002       S  0.23380153  0.02876058  0.82971383    -0.30900
H2003       H  0.19086280  0.05339291  0.79270019     0.10000
C2004       C  0.13949512  0.03634184  0.73541243     0.03200
C2005       C  0.11702520  0.05428780  0.72608656    -0.13200
C2006       C  0.12090144  0.08398622  0.72328344    -0.08900
C2007       C  0.14833677  0.09563471  0.72894572     0.06700
C2008       C  0.17076158  0.07772322  0.73790936    -0.14000
S2009       S  0.13258810  0.99883262  0.74175757    -0.30900
H2010       H  0.09598563  0.04535129  0.72212932     0.10900
S2011       S  0.15642235  0.13312099  0.72481213    -0.28000
H2012       H  0.19156843  0.08697138  0.74239755     0.08100
H2013       H  0.21890193  0.05484107  0.83182651     0.26600
H2014       H  0.10414235  0.99868778  0.73172603     0.21400
H2015       H  0.13676227  0.13817453  0.70252586     0.26700
H2016       H  0.18632253  0.02862883  0.69280278     0.15500
C2017       C  0.30233227  0.03855817  0.91549465    -0.11800
C2018       C  0.29776332  0.03248628  0.94466505     0.14800
C2019       C  0.28949766  0.00454485  0.95272553     0.01700
C2020       C  0.28558164  0.98336403  0.93146233    -0.16100
C2021       C  0.29052544  0.98937537  0.90229062    -0.10900
C2022       C  0.29924581  0.01724085  0.89434642     0.08400
C2023       C  0.30186978  0.05574292  0.96630522     0.09400
S2024       S  0.28482950  0.99572611  0.99020564    -0.25200
H2025       H  0.27963017  0.96183170  0.93760599     0.19700
S2026       S  0.30656275  0.02566227  0.85716310    -0.30900
H2027       H  0.30874345  0.05999586  0.90941507     0.10000
C2028       C  0.32877298  0.06117783  0.97900765     0.03200
C2029       C  0.33179946  0.08380988  0.99878941    -0.13200
C2030       C  0.30855114  0.10162572  0.00603640    -0.08900
C2031       C  0.28140502  0.09555288  0.99362954     0.06700
C2032       C  0.27850768  0.07303582  0.97382496    -0.14000
S2033       S  0.35939705  0.03952566  0.96962129    -0.30900
H2034       H  0.35263243  0.08813260  0.00807324     0.10900
S2035       S  0.24930198  0.11489657  0.00283053    -0.28000
H2036       H  0.25772697  0.06877832  0.96432649     0.08100
H2037       H  0.31475647  0.05429536  0.86154856     0.26600
H2038       H  0.37972426  0.05488985  0.98577086     0.21400
H2039       H  0.25582212  0.11657984  0.03232030     0.26700
H2040       H  0.27870871  0.96653128  0.98614892     0.15500
C2041       C  0.40270126  0.00646714  0.76861333    -0.11800
C2042       C  0.42219604  0.01289670  0.79062273     0.14800
C2043       C  0.41806091  0.00045863  0.81803247     0.01700
C2044       C  0.39424907  0.98276547  0.82301638    -0.16100
C2045       C  0.37434098  0.97663766  0.80114293    -0.10900
C2046       C  0.37929175  0.98820443  0.77335164     0.08400
C2047       C  0.44516027  0.03441790  0.78514340     0.09400
S2048       S  0.44226844  0.00658251  0.84765072    -0.25200
H2049       H  0.39111289  0.97395234  0.84432945     0.19700
S2050       S  0.35729258  0.97982116  0.74263908    -0.30900
H2051       H  0.40575856  0.01578879  0.74751930     0.10000
C2052       C  0.46902535  0.02873802  0.76734011     0.03200
C2053       C  0.49078375  0.04953792  0.76428900    -0.13200
C2054       C  0.48907722  0.07591113  0.77870486    -0.08900
C2055       C  0.46424573  0.08197054  0.79513173     0.06700
C2056       C  0.44292238  0.06120348  0.79839201    -0.14000
S2057       S  0.47254688  0.99441918  0.74991943    -0.30900
H2058       H  0.50974186  0.04475991  0.75178704     0.10900
S2059       S  0.45828451  0.11599508  0.81242025    -0.28000
H2060       H  0.42433559  0.06594549  0.81150925     0.08100
H2061       H  0.35530584  0.95047531  0.74920058     0.26600
H2062       H  0.49890207  0.00000101  0.73638997     0.21400
H2063       H  0.47245158  0.13229232  0.79134330     0.26700
H2064       H  0.46697527  0.01042533  0.83081921     0.15500
C2065       C  0.37830741  0.82071715  0.77153900    -0.11800
C2066       C  0.36739544  0.79603658  0.78488301     0.14800
C2067       C  0.34646160  0.79907509  0.80651783     0.01700
C2068       C  0.33643919  0.82639743  0.81376592    -0.16100
C2069       C  0.34707757  0.85122905  0.80033074    -0.10900
C2070       C  0.36868204  0.84817973  0.77920054     0.08400
C2071       C  0.37752105  0.76746082  0.77504906     0.09400
S2072       S  0.33114679  0.76891182  0.82520786    -0.25200
H2073       H  0.31982879  0.82820707  0.82990311     0.19700
S2074       S  0.38553149  0.87833402  0.76194200    -0.30900
H2075       H  0.39456665  0.81854818  0.75506213     0.10000
C2076       C  0.36166315  0.75121215  0.75512449     0.03200
C2077       C  0.37289035  0.72525846  0.74483879    -0.13200
C2078       C  0.39973391  0.71493620  0.75407861    -0.08900
C2079       C  0.41504709  0.73076100  0.77501736     0.06700
C2080       C  0.40379263  0.75684352  0.78516301    -0.14000
S2081       S  0.32782315  0.76435368  0.74158665    -0.30900
H2082       H  0.36128109  0.71350728  0.72851451     0.10900
S2083       S  0.44995733  0.71930950  0.78725766    -0.28000
H2084       H  0.41574761  0.76944751  0.80056509     0.08100
H2085       H  0.38653537  0.89530348  0.78690126     0.26600
H2086       H  0.32124738  0.74046211  0.72442605     0.21400
H2087       H  0.45548494  0.74261705  0.80554911     0.26700
H2088       H  0.35546937  0.75126501  0.82368038     0.15500
C2089       C  0.23157664  0.83774833  0.92854069    -0.11800
C2090       C  0.24790370  0.81253857  0.92653174     0.14800
C2091       C  0.27198343  0.81227846  0.90806351     0.01700
C2092       C  0.27948809  0.83713675  0.89276858    -0.16100
C2093       C  0.26305427  0.86224733  0.89464972    -0.10900
C2094       C  0.23894079  0.86250681  0.91301521     0.08400
C2095       C  0.23940270  0.78728591  0.94438283     0.09400
S2096       S  0.29368948  0.78082909  0.90256611    -0.25200
H2097       H  0.29785285  0.83661283  0.87857013     0.19700
S2098       S  0.21720044  0.89398002  0.91815768    -0.30900
H2099       H  0.21317648  0.83827490  0.94270691     0.10000
C2100       C  0.25482907  0.77916610  0.96922116     0.03200
C2101       C  0.24452090  0.75679684  0.98675686    -0.13200
C2102       C  0.21895819  0.74223707  0.98009676    -0.08900
C2103       C  0.20466222  0.74922789  0.95410708     0.06700
C2104       C  0.21471563  0.77182434  0.93693429    -0.14000
S2105       S  0.28653551  0.79863907  0.97978252    -0.30900
H2106       H  0.25546000  0.75189670  0.00669592     0.10900
S2107       S  0.17344255  0.73012427  0.94161469    -0.28000
H2108       H  0.20307553  0.77752447  0.91757470     0.08100
H2109       H  0.23946046  0.91383872  0.91405213     0.26600
H2110       H  0.29491772  0.77989382  0.00191200     0.21400
H2111       H  0.18128943  0.70371510  0.95387558     0.26700
H2112       H  0.27198932  0.76071406  0.90804690     0.15500
C2113       C  0.24981853  0.70434171  0.44602524    -0.11800
C2114       C  0.23245868  0.68281787  0.43398220     0.14800
C2115       C  0.20268025  0.68354657  0.43945178     0.01700
C2116       C  0.19144469  0.70389330  0.45847439    -0.16100
C2117       C  0.20899020  0.72431997  0.47205532    -0.10900
C2118       C  0.23847002  0.72495576  0.46495856     0.08400
C2119       C  0.24607072  0.65799836  0.41888837     0.09400
S2120       S  0.17793782  0.65846551  0.42352526    -0.25200
H2121       H  0.16878238  0.70318748  0.46345685     0.19700
S2122       S  0.26313554  0.74976184  0.48122765    -0.30900
H2123       H  0.27267514  0.70404102  0.44203488     0.10000
C2124       C  0.26073895  0.66088451  0.39249792     0.03200
C2125       C  0.27218218  0.63643063  0.37891146    -0.13200
C2126       C  0.26906235  0.60898779  0.39098162    -0.08900
C2127       C  0.25528152  0.60637525  0.41792110     0.06700
C2128       C  0.24391485  0.63069637  0.43139390    -0.14000
S2129       S  0.26330875  0.69536411  0.37518619    -0.30900
H2130       H  0.28253185  0.63850554  0.35818759     0.10900
S2131       S  0.25203858  0.57267414  0.43656586    -0.28000
H2132       H  0.23322107  0.62832507  0.45190806     0.08100
H2133       H  0.25289542  0.74564645  0.50933470     0.26600
H2134       H  0.28002965  0.68640325  0.35171849     0.21400
H2135       H  0.27822698  0.56144669  0.42675427     0.26700
H2136       H  0.19383944  0.65393866  0.39827664     0.15500
C2137       C  0.20802488  0.88430802  0.45942572    -0.11800
C2138       C  0.18691283  0.90543965  0.45663715     0.14800
C2139       C  0.16032001  0.90147924  0.47073421     0.01700
C2140       C  0.15623200  0.87747957  0.48849793    -0.16100
C2141       C  0.17769326  0.85658064  0.49183511    -0.10900
C2142       C  0.20355003  0.85985762  0.47618968     0.08400
C2143       C  0.19318887  0.93049788  0.43785093     0.09400
S2144       S  0.13058178  0.92583964  0.46665207    -0.25200
H2145       H  0.13610649  0.87518295  0.49985961     0.19700
S2146       S  0.23102663  0.83284411  0.47510263    -0.30900
H2147       H  0.22809489  0.88665347  0.44794388     0.10000
C2148       C  0.19553732  0.95860633  0.44873544     0.03200
C2149       C  0.20104175  0.98142216  0.42976436    -0.13200
C2150       C  0.20532467  0.97662892  0.40026296    -0.08900
C2151       C  0.20374128  0.94833158  0.38960361     0.06700
C2152       C  0.19788938  0.92570939  0.40845638    -0.14000
S2153       S  0.19266604  0.96533006  0.48684533    -0.30900
H2154       H  0.20236958  0.00305965  0.43794226     0.10900
S2155       S  0.20762395  0.93966063  0.35202592    -0.28000
H2156       H  0.19640311  0.90415927  0.40002893     0.08100
H2157       H  0.21127833  0.81068923  0.47010457     0.26600
H2158       H  0.19946617  0.99464013  0.48575804     0.21400
H2159       H  0.19353812  0.96413626  0.34160815     0.26700
H2160       H  0.13783174  0.93562794  0.43903948     0.15500
C2161       C  0.05890905  0.74991719  0.44466657    -0.11800
C2162       C  0.04902589  0.77739121  0.43734484     0.14800
C2163       C  0.05775851  0.80083328  0.45439926     0.01700
C2164       C  0.07570808  0.79634273  0.47822638    -0.16100
C2165       C  0.08601222  0.76892208  0.48549881    -0.10900
C2166       C  0.07703365  0.74540632  0.46846061     0.08400
C2167       C  0.02902496  0.78094261  0.41242894     0.09400
S2168       S  0.04737338  0.83718038  0.44644247    -0.25200
H2169       H  0.08249215  0.81475460  0.49065349     0.19700
S2170       S  0.08686238  0.70900364  0.47653278    -0.30900
H2171       H  0.05205222  0.73172721  0.43196009     0.10000
C2172       C  0.03844978  0.77784399  0.38379384     0.03200
C2173       C  0.01907763  0.78208986  0.36096827    -0.13200
C2174       C  0.99043457  0.79004006  0.36593007    -0.08900
C2175       C  0.98088456  0.79273164  0.39467694     0.06700
C2176       C  0.00024482  0.78815487  0.41750601    -0.14000
S2177       S  0.07553301  0.76980766  0.37625282    -0.30900
H2178       H  0.02650448  0.78002098  0.33901540     0.10900
S2179       S  0.94378505  0.80053272  0.40257245    -0.28000
H2180       H  0.99301222  0.79019418  0.43953044     0.08100
H2181       H  0.08417740  0.71221773  0.50648441     0.26600
H2182       H  0.07347581  0.77124663  0.34612035     0.21400
H2183       H  0.94669142  0.80209103  0.43262333     0.26700
H2184       H  0.04603054  0.83382659  0.41644344     0.15500
C2185       C  0.22796707  0.84388746  0.72607095    -0.11800
C2186       C  0.21313466  0.86138536  0.70647513     0.14800
C2187       C  0.20509544  0.88928834  0.71532498     0.01700
C2188       C  0.21350958  0.89948179  0.74249201    -0.16100
C2189       C  0.23054456  0.88280050  0.76092018    -0.10900
C2190       C  0.23681729  0.85428827  0.75294731     0.08400
C2191       C  0.20657348  0.84997303  0.67709696     0.09400
S2192       S  0.18612603  0.91384704  0.69221452    -0.25200
H2193       H  0.20899896  0.92151850  0.74809634     0.19700
S2194       S  0.25721463  0.83056616  0.77576582    -0.30900
H2195       H  0.23346569  0.82221660  0.72001642     0.10000
C2196       C  0.22847984  0.84214635  0.65764861     0.03200
C2197       C  0.22129169  0.83122957  0.63033568    -0.13200
C2198       C  0.19259758  0.82859435  0.62142017    -0.08900
C2199       C  0.17067072  0.83672294  0.64096976     0.06700
C2200       C  0.17794716  0.84693666  0.66848603    -0.14000
S2201       S  0.26571852  0.84722605  0.66703429    -0.30900
H2202       H  0.23815243  0.82518813  0.61560019     0.10900
S2203       S  0.13316466  0.83357026  0.63183971    -0.28000
H2204       H  0.16123953  0.85277919  0.68348505     0.08100
H2205       H  0.25051640  0.84444701  0.80173630     0.26600
H2206       H  0.27741946  0.83533565  0.64188872     0.21400
H2207       H  0.12198879  0.83989148  0.65917032     0.26700
H2208       H  0.19879959  0.90454330  0.66646634     0.15500
C2209       C  0.31111851  0.66359099  0.64166174    -0.11800
C2210       C  0.30789263  0.68554120  0.62152476     0.14800
C2211       C  0.33258674  0.70009674  0.61155095     0.01700
C2212       C  0.35979943  0.69219939  0.62190586    -0.16100
C2213       C  0.36320557  0.66991455  0.64194056    -0.10900
C2214       C  0.33824094  0.65554945  0.65195639     0.08400
C2215       C  0.27846432  0.69225674  0.61118022     0.09400
S2216       S  0.33116136  0.72858569  0.58532761    -0.25200
H2217       H  0.37852960  0.70342216  0.61400101     0.19700
S2218       S  0.34002852  0.62760790  0.67875602    -0.30900
H2219       H  0.29211882  0.65265937  0.64924961     0.10000
C2220       C  0.26843174  0.68212283  0.58449296     0.03200
C2221       C  0.24167756  0.69130817  0.57418951    -0.13200
C2222       C  0.22457046  0.71029594  0.59008628    -0.08900
C2223       C  0.23369564  0.71880238  0.61768002     0.06700
C2224       C  0.26047627  0.70950307  0.62809898    -0.14000
S2225       S  0.29041790  0.65881536  0.56281156    -0.30900
H2226       H  0.23499462  0.68546930  0.55267316     0.10900
S2227       S  0.21248795  0.74369849  0.63835243    -0.28000
H2228       H  0.26813162  0.71685913  0.64878124     0.08100
H2229       H  0.31054738  0.62161034  0.68046015     0.26600
H2230       H  0.27002496  0.65391480  0.54106935     0.21400
H2231       H  0.22968125  0.74314960  0.66320139     0.26700
H2232       H  0.30213370  0.73577903  0.58838384     0.15500
C2233       C  0.05741704  0.72560342  0.63898448    -0.11800
C2234       C  0.06789937  0.73222261  0.66648082     0.14800
C2235       C  0.09362233  0.74803916  0.66895384     0.01700
C2236       C  0.10819840  0.75662472  0.64398895    -0.16100
C2237       C  0.09781383  0.74986498  0.61643131    -0.10900
C2238       C  0.07183895  0.73442723  0.61406772     0.08400
C2239       C  0.05145717  0.72189491  0.69182422     0.09400
S2240       S  0.10967070  0.75728437  0.70304685    -0.25200
H2241       H  0.12820371  0.76820565  0.64611787     0.19700
S2242       S  0.05543598  0.72615335  0.57995868    -0.30900
H2243       H  0.03760053  0.71367748  0.63693161     0.10000
C2244       C  0.02919364  0.73825866  0.70395991     0.03200
C2245       C  0.01204071  0.72643469  0.72580866    -0.13200
C2246       C  0.01663772  0.69838132  0.73589518    -0.08900
C2247       C  0.04065599  0.68302413  0.72521550     0.06700
C2248       C  0.05736320  0.69472883  0.70308552    -0.14000
S2249       S  0.02192766  0.77384284  0.69079193    -0.30900
H2250       H  0.99396030  0.73854965  0.73378317     0.10900
S2251       S  0.05122421  0.64836353  0.73865636    -0.28000
H2252       H  0.07496192  0.68238647  0.69429257     0.08100
H2253       H  0.06360325  0.75182919  0.56645363     0.26600
H2254       H  0.00473559  0.78229049  0.71411162     0.21400
H2255       H  0.04261979  0.65372783  0.76707917     0.26700
H2256       H  0.08559995  0.75319483  0.72059187     0.15500
loop_ 
_geom_bond_atom_site_label_1 
_geom_bond_atom_site_label_2 
_geom_bond_distance 
_geom_bond_site_symmetry_2 
_ccdc_geom_bond_type 
O1          Cr19   2.000       .  S
O1            C9   1.265       .  A
O2          Cr19   1.977       .  S
O2            C3   1.258       .  A
C3            O4   1.268       .  A
C3         C2222   1.474       .  S
O4          Cr20   2.014       .  S
O5          Cr20   2.010       .  S
O5            C6   1.263       .  A
C6            O7   1.258       .  A
C6         C2237   1.487       .  S
O7          Cr21   1.986       .  S
O8          Cr21   2.010       .  S
O8            C9   1.266       .  A
C9         C2198   1.500       .  S
O10         Cr19   2.002       .  S
O10          C18   1.263       .  A
O11         Cr19   2.009       .  S
O11          C12   1.270       .  A
C12          O13   1.264       .  A
C12        C2117   1.491       .  S
O13         Cr20   1.994       .  S
O14         Cr20   1.998       .  S
O14          C15   1.265       .  A
C15          O16   1.268       .  A
C15        C2165   1.500       .  S
O16         Cr21   2.011       .  S
O17         Cr21   1.993       .  S
O17          C18   1.262       .  A
C18        C2141   1.493       .  S
Cr19         O22   1.778       .  S
Cr20         O22   1.779       .  S
Cr21         O22   1.780       .  S
O23         Cr41   2.029       .  S
O23          C31   1.270       .  A
O24         Cr41   1.958       .  S
O24          C25   1.255       .  A
C25          O26   1.274       .  A
C25        C2189   1.483       .  S
O26         Cr42   2.050       .  S
O27         Cr42   1.986       .  S
O27          C28   1.261       .  A
C28          O29   1.268       .  A
C28        C2093   1.487       .  S
O29         Cr43   2.022       .  S
O30         Cr43   1.972       .  S
O30          C31   1.259       .  A
C31        C2069   1.491       .  S
O32         Cr41   1.977       .  S
O32          C40   1.260       .  A
O33         Cr41   2.035       .  S
O33          C34   1.271       .  A
C34          O35   1.259       .  A
C34        C1997   1.502       .  S
O35         Cr42   1.976       .  S
O36         Cr42   2.045       .  S
O36          C37   1.275       .  A
C37          O38   1.260       .  A
C37        C2021   1.488       .  S
O38         Cr43   1.972       .  S
O39         Cr43   2.030       .  S
O39          C40   1.271       .  A
C40        C2045   1.495       .  S
Cr41         O44   1.769       .  S
Cr42         O44   1.775       .  S
Cr43         O44   1.771       .  S
O45         Cr63   2.038       .  S
O45          C53   1.274       .  A
O46         Cr63   1.957       .  S
O46          C47   1.254       .  A
C47          O48   1.274       .  A
C47        C2078   1.491       .  S
O48         Cr64   2.051       .  S
O49         Cr64   1.979       .  S
O49          C50   1.261       .  A
C50          O51   1.269       .  A
C50        C1925   1.492       .  S
O51         Cr65   2.028       .  S
O52         Cr65   1.966       .  S
O52          C53   1.257       .  A
C53        C2213   1.498       .  S
O54         Cr63   1.971       .  S
O54          C62   1.259       .  A
O55         Cr63   2.051       .  S
O55          C56   1.274       .  A
C56          O57   1.257       .  A
C56        C1901   1.503       .  S
O57         Cr64   1.963       .  S
O58         Cr64   2.042       .  S
O58          C59   1.275       .  A
C59          O60   1.258       .  A
C59        C1949   1.488       .  S
O60         Cr65   1.964       .  S
O61         Cr65   2.027       .  S
O61          C62   1.270       .  A
C62        C1973   1.488       .  S
Cr63         O66   1.768       .  S
Cr64         O66   1.765       .  S
Cr65         O66   1.771       .  S
O67         Cr85   2.038       .  S
O67          C75   1.275       .  A
O68         Cr85   1.948       .  S
O68          C69   1.254       .  A
C69          O70   1.273       .  A
C69        C1853   1.483       .  S
O70         Cr86   2.043       .  S
O71         Cr86   1.987       .  S
O71          C72   1.259       .  A
C72          O73   1.268       .  A
C72        C1877   1.493       .  S
O73         Cr87   2.029       .  S
O74         Cr87   1.956       .  S
O74          C75   1.255       .  A
C75        C1829   1.494       .  S
O76         Cr85   1.974       .  S
O76          C84   1.257       .  A
O77         Cr85   2.030       .  S
O77          C78   1.271       .  A
C78          O79   1.260       .  A
C78        C1757   1.492       .  S
O79         Cr86   1.970       .  S
O80         Cr86   2.056       .  S
O80          C81   1.278       .  A
C81          O82   1.256       .  A
C81        C1781   1.494       .  S
O82         Cr87   1.953       .  S
O83         Cr87   2.029       .  S
O83          C84   1.269       .  A
C84        C1805   1.483       .  S
Cr85         O88   1.763       .  S
Cr86         O88   1.767       .  S
Cr87         O88   1.763       .  S
O89        Cr107   1.992       .  S
O89          C97   1.263       .  A
O90        Cr107   1.979       .  S
O90          C91   1.261       .  A
C91          O92   1.266       .  A
C91        C1685   1.483       .  S
O92        Cr108   2.008       .  S
O93        Cr108   2.019       .  S
O93          C94   1.269       .  A
C94          O95   1.259       .  A
C94        C1718   1.505       .  S
O95        Cr109   1.982       .  S
O96        Cr109   2.010       .  S
O96          C97   1.264       .  A
C97        C1862   1.482       .  S
O98        Cr107   2.006       .  S
O98         C106   1.264       .  A
O99        Cr107   2.001       .  S
O99         C100   1.269       .  A
C100        O101   1.266       .  A
C100       C1670   1.485       .  S
O101       Cr108   2.001       .  S
O102       Cr108   1.987       .  S
O102        C103   1.261       .  A
C103        O104   1.264       .  A
C103       C1982   1.485       .  S
O104       Cr109   2.008       .  S
O105       Cr109   1.986       .  S
O105        C106   1.261       .  A
C106       C1733   1.483       .  S
Cr107       O110   1.772       .  S
Cr108       O110   1.775       .  S
Cr109       O110   1.779       .  S
O111       Cr129   2.039       .  S
O111        C119   1.276       .  A
O112       Cr129   1.966       .  S
O112        C113   1.255       .  A
C113        O114   1.270       .  A
C113       C1838   1.478       .  S
O114       Cr130   2.036       .  S
O115       Cr130   1.973       .  S
O115        C116   1.260       .  A
C116        O117   1.270       .  A
C116       C1637   1.493       .  S
O117       Cr131   2.028       .  S
O118       Cr131   1.953       .  S
O118        C119   1.253       .  A
C119       C1694   1.499       .  S
O120       Cr129   1.985       .  S
O120        C128   1.261       .  A
O121       Cr129   2.050       .  S
O121        C122   1.275       .  A
C122        O123   1.259       .  A
C122       C1589   1.505   1_655  S
O123       Cr130   1.963       .  S
O124       Cr130   2.036       .  S
O124        C125   1.273       .  A
C125        O126   1.258       .  A
C125       C1613   1.491   1_655  S
O126       Cr131   1.965       .  S
O127       Cr131   2.025       .  S
O127        C128   1.269       .  A
C128       C2174   1.494       .  S
Cr129       O132   1.764       .  S
Cr130       O132   1.766       .  S
Cr131       O132   1.767       .  S
O133       Cr151   2.040       .  S
O133        C141   1.275       .  A
O134       Cr151   1.955       .  S
O134        C135   1.254       .  A
C135        O136   1.272       .  A
C135       C1541   1.494       .  S
O136       Cr152   2.046       .  S
O137       Cr152   1.970       .  S
O137        C138   1.258       .  A
C138        O139   1.271       .  A
C138       C1565   1.492       .  S
O139       Cr153   2.034       .  S
O140       Cr153   1.953       .  S
O140        C141   1.253       .  A
C141       C1526   1.500       .  S
O142       Cr151   1.969       .  S
O142        C150   1.258       .  A
O143       Cr151   2.054       .  S
O143        C144   1.275       .  A
C144        O145   1.257       .  A
C144       C1469   1.498       .  S
O145       Cr152   1.958       .  S
O146       Cr152   2.045       .  S
O146        C147   1.274       .  A
C147        O148   1.257       .  A
C147       C2054   1.488       .  S
O148       Cr153   1.958       .  S
O149       Cr153   2.032       .  S
O149        C150   1.273       .  A
C150       C1493   1.501       .  S
Cr151       O154   1.765       .  S
Cr152       O154   1.767       .  S
Cr153       O154   1.765       .  S
O155       Cr173   2.033       .  S
O155        C163   1.273       .  A
O156       Cr173   1.955       .  S
O156        C157   1.254       .  A
C157        O158   1.270       .  A
C157       C1517   1.478       .  S
O158       Cr174   2.037       .  S
O159       Cr174   1.978       .  S
O159        C160   1.260       .  A
C160        O161   1.271       .  A
C160       C1454   1.492       .  S
O161       Cr175   2.035       .  S
O162       Cr175   1.953       .  S
O162        C163   1.254       .  A
C163       C1430   1.488       .  S
O164       Cr173   1.968       .  S
O164        C172   1.256       .  A
O165       Cr173   2.038       .  S
O165        C166   1.274       .  A
C166        O167   1.257       .  A
C166       C1382   1.499   1_556  S
O167       Cr174   1.965       .  S
O168       Cr174   2.033       .  S
O168        C169   1.273       .  A
C169        O170   1.256       .  A
C169       C1397   1.484   1_556  S
O170       Cr175   1.950       .  S
O171       Cr175   2.039       .  S
O171        C172   1.273       .  A
C172       C1790   1.495       .  S
Cr173       O176   1.763       .  S
Cr174       O176   1.768       .  S
Cr175       O176   1.768       .  S
O177       Cr195   2.043       .  S
O177        C185   1.276       .  A
O178       Cr195   1.939       .  S
O178        C179   1.252       .  A
C179        O180   1.274       .  A
C179       C1421   1.483       .  S
O180       Cr196   2.041       .  S
O181       Cr196   1.982       .  S
O181        C182   1.257       .  A
C182        O183   1.264       .  A
C182       C1349   1.490       .  S
O183       Cr197   2.021       .  S
O184       Cr197   1.954       .  S
O184        C185   1.258       .  A
C185       C1550   1.499       .  S
O186       Cr195   1.979       .  S
O186        C194   1.257       .  A
O187       Cr195   2.037       .  S
O187        C188   1.271       .  A
C188        O189   1.258       .  A
C188       C1325   1.500       .  S
O189       Cr196   1.969       .  S
O190       Cr196   2.045       .  S
O190        C191   1.278       .  A
C191        O192   1.259       .  A
C191       C1742   1.484       .  S
O192       Cr197   1.948       .  S
O193       Cr197   2.025       .  S
O193        C194   1.267       .  A
C194       C1958   1.482       .  S
Cr195       O198   1.765       .  S
Cr196       O198   1.768       .  S
Cr197       O198   1.771       .  S
O199       Cr217   2.034       .  S
O199        C207   1.273       .  A
O200       Cr217   1.971       .  S
O200        C201   1.256       .  A
C201        O202   1.270       .  A
C201       C1262   1.482       .  S
O202       Cr218   2.035       .  S
O203       Cr218   1.982       .  S
O203        C204   1.262       .  A
C204        O205   1.267       .  A
C204       C1301   1.494       .  S
O205       Cr219   2.020       .  S
O206       Cr219   1.965       .  S
O206        C207   1.258       .  A
C207       C1286   1.487       .  S
O208       Cr217   1.985       .  S
O208        C216   1.260       .  A
O209       Cr217   2.043       .  S
O209        C210   1.274       .  A
C210        O211   1.257       .  A
C210       C1238   1.502   1_554  S
O211       Cr218   1.963       .  S
O212       Cr218   2.033       .  S
O212        C213   1.273       .  A
C213        O214   1.260       .  A
C213       C1502   1.494   1_554  S
O214       Cr219   1.970       .  S
O215       Cr219   2.025       .  S
O215        C216   1.269       .  A
C216       C2030   1.499       .  S
Cr217       O220   1.770       .  S
Cr218       O220   1.770       .  S
Cr219       O220   1.771       .  S
O221       Cr239   2.032       .  S
O221        C229   1.273       .  A
O222       Cr239   1.959       .  S
O222        C223   1.254       .  A
C223        O224   1.271       .  A
C223       C1190   1.477       .  S
O224       Cr240   2.040       .  S
O225       Cr240   1.982       .  S
O225        C226   1.260       .  A
C226        O227   1.268       .  A
C226       C1214   1.482       .  S
O227       Cr241   2.026       .  S
O228       Cr241   1.961       .  S
O228        C229   1.255       .  A
C229       C1253   1.493       .  S
O230       Cr239   1.962       .  S
O230        C238   1.256       .  A
O231       Cr239   2.039       .  S
O231        C232   1.274       .  A
C232        O233   1.259       .  A
C232       C1157   1.496   1_455  S
O233       Cr240   1.970       .  S
O234       Cr240   2.045       .  S
O234        C235   1.275       .  A
C235        O236   1.256       .  A
C235       C1814   1.487   1_455  S
O236       Cr241   1.955       .  S
O237       Cr241   2.025       .  S
O237        C238   1.270       .  A
C238       C1406   1.488       .  S
Cr239       O242   1.762       .  S
Cr240       O242   1.769       .  S
Cr241       O242   1.764       .  S
O243       Cr261   1.993       .  S
O243        C251   1.263       .  A
O244       Cr261   1.986       .  S
O244        C245   1.262       .  A
C245        O246   1.267       .  A
C245       C1277   1.470       .  S
O246       Cr262   2.002       .  S
O247       Cr262   2.013       .  S
O247        C248   1.263       .  A
C248        O249   1.258       .  A
C248       C1133   1.483       .  S
O249       Cr263   1.988       .  S
O250       Cr263   2.001       .  S
O250        C251   1.263       .  A
C251       C1181   1.492       .  S
O252       Cr261   2.011       .  S
O252        C260   1.266       .  A
O253       Cr261   2.006   1_565  S
O253        C254   1.268       .  A
C254        O255   1.263   1_565  A
C254       C1109   1.489       .  S
O255       Cr262   1.995       .  S
O256       Cr262   1.987       .  S
O256        C257   1.263       .  A
C257        O258   1.266       .  A
C257       C2150   1.481   1_545  S
O258       Cr263   2.010       .  S
O259       Cr263   1.988       .  S
O259        C260   1.264       .  A
C260       C1622   1.498   1_545  S
Cr261       O264   1.774       .  S
Cr262       O264   1.774       .  S
Cr263       O264   1.775       .  S
O265       Cr283   1.951       .  S
O265        C273   1.258       .  A
O266       Cr283   2.019       .  S
O266        C267   1.267       .  A
C267        O268   1.260       .  A
C267       C1022   1.490   1_455  S
O268       Cr284   1.984       .  S
O269       Cr284   2.041       .  S
O269        C270   1.273       .  A
C270        O271   1.257       .  A
C270       C1445   1.500   1_455  S
O271       Cr285   1.964       .  S
O272       Cr285   2.040       .  S
O272        C273   1.275       .  A
C273       C1046   1.485   1_455  S
O274       Cr283   2.026       .  S
O274        C282   1.266       .  A
O275       Cr283   1.957       .  S
O275        C276   1.260       .  A
C276        O277   1.275       .  A
C276       C1085   1.498       .  S
O277       Cr284   2.036       .  S
O278       Cr284   1.957       .  S
O278        C279   1.255       .  A
C279        O280   1.271       .  A
C279       C1070   1.484       .  S
O280       Cr285   2.029       .  S
O281       Cr285   1.986       .  S
O281        C282   1.259       .  A
C282       C2006   1.489       .  S
Cr283       O286   1.771       .  S
Cr284       O286   1.768       .  S
Cr285       O286   1.768       .  S
O287       Cr305   1.964       .  S
O287        C295   1.259       .  A
O288       Cr305   2.029       .  S
O288        C289   1.270       .  A
C289        O290   1.258       .  A
C289        C965   1.498       .  S
O290       Cr306   1.975       .  S
O291       Cr306   2.033       .  S
O291        C292   1.272       .  A
C292        O293   1.258       .  A
C292       C1934   1.499       .  S
O293       Cr307   1.966       .  S
O294       Cr307   2.048       .  S
O294        C295   1.276       .  A
C295        C941   1.490       .  S
O296       Cr305   2.030       .  S
O296        C304   1.268       .  A
O297       Cr305   1.966       .  S
O297        C298   1.260       .  A
C298        O299   1.272       .  A
C298       C1061   1.492       .  S
O299       Cr306   2.026       .  S
O300       Cr306   1.956       .  S
O300        C301   1.254       .  A
C301        O302   1.272       .  A
C301        C989   1.490       .  S
O302       Cr307   2.037       .  S
O303       Cr307   1.982       .  S
O303        C304   1.259       .  A
C304       C1229   1.493       .  S
Cr305       O308   1.772       .  S
Cr306       O308   1.768       .  S
Cr307       O308   1.770       .  S
O309       Cr327   1.954       .  S
O309        C317   1.259       .  A
O310       Cr327   2.019       .  S
O310        C311   1.267       .  A
C311        O312   1.261       .  A
C311        C893   1.488       .  S
O312       Cr328   1.977       .  S
O313       Cr328   2.030       .  S
O313        C314   1.271       .  A
C314        O315   1.259       .  A
C314       C1142   1.492       .  S
O315       Cr329   1.976       .  S
O316       Cr329   2.038       .  S
O316        C317   1.276       .  A
C317        C917   1.480       .  S
O318       Cr327   2.014       .  S
O318        C326   1.264       .  A
O319       Cr327   1.963       .  S
O319        C320   1.258       .  A
C320        O321   1.271       .  A
C320        C998   1.482       .  S
O321       Cr328   2.026       .  S
O322       Cr328   1.956       .  S
O322        C323   1.255       .  A
C323        O324   1.272       .  A
C323       C1094   1.482       .  S
O324       Cr329   2.036       .  S
O325       Cr329   1.990       .  S
O325        C326   1.260       .  A
C326       C1478   1.491       .  S
Cr327       O330   1.771       .  S
Cr328       O330   1.764       .  S
Cr329       O330   1.767       .  S
O331       Cr349   1.969       .  S
O331        C339   1.260       .  A
O332       Cr349   2.026       .  S
O332        C333   1.270       .  A
C333        O334   1.260       .  A
C333        C797   1.490   1_545  S
O334       Cr350   1.977       .  S
O335       Cr350   2.027       .  S
O335        C336   1.271   1_545  A
C336        O337   1.260       .  A
C336       C1646   1.502       .  S
O337       Cr351   1.975   1_565  S
O338       Cr351   2.041       .  S
O338        C339   1.274       .  A
C339        C830   1.497   1_545  S
O340       Cr349   2.024       .  S
O340        C348   1.268       .  A
O341       Cr349   1.972       .  S
O341        C342   1.259       .  A
C342        O343   1.270       .  A
C342        C869   1.486       .  S
O343       Cr350   2.023       .  S
O344       Cr350   1.960       .  S
O344        C345   1.253       .  A
C345        O346   1.268       .  A
C345        C845   1.477       .  S
O346       Cr351   2.033       .  S
O347       Cr351   1.980       .  S
O347        C348   1.259       .  A
C348       C1373   1.484       .  S
Cr349       O352   1.772       .  S
Cr350       O352   1.765       .  S
Cr351       O352   1.773       .  S
O353       Cr371   2.002       .  S
O353        C361   1.266       .  A
O354       Cr371   1.997       .  S
O354        C355   1.265       .  A
C355        O356   1.266       .  A
C355        C758   1.502       .  S
O356       Cr372   2.007       .  S
O357       Cr372   2.000       .  S
O357        C358   1.266       .  A
C358        O359   1.262       .  A
C358       C1358   1.481       .  S
O359       Cr373   1.988       .  S
O360       Cr373   1.992       .  S
O360        C361   1.263       .  A
C361       C1013   1.488       .  S
O362       Cr371   2.002       .  S
O362        C370   1.263       .  A
O363       Cr371   1.996       .  S
O363        C364   1.260       .  A
C364        O365   1.262       .  A
C364        C854   1.491       .  S
O365       Cr372   1.990       .  S
O366       Cr372   1.985       .  S
O366        C367   1.262       .  A
C367        O368   1.266       .  A
C367        C773   1.469       .  S
O368       Cr373   1.999       .  S
O369       Cr373   2.004       .  S
O369        C370   1.264       .  A
C370       C1166   1.494       .  S
Cr371       O374   1.776       .  S
Cr372       O374   1.772       .  S
Cr373       O374   1.774       .  S
O375       Cr393   1.953       .  S
O375        C383   1.257       .  A
O376       Cr393   2.023       .  S
O376        C377   1.270       .  A
C377        O378   1.260       .  A
C377        C926   1.489       .  S
O378       Cr394   1.967       .  S
O379       Cr394   2.040       .  S
O379        C380   1.272       .  A
C380        O381   1.259       .  A
C380       C1310   1.489       .  S
O381       Cr395   1.973       .  S
O382       Cr395   2.053       .  S
O382        C383   1.279       .  A
C383        C734   1.485       .  S
O384       Cr393   2.023       .  S
O384        C392   1.268       .  A
O385       Cr393   1.970       .  S
O385        C386   1.259       .  A
C386        O387   1.267       .  A
C386        C782   1.497       .  S
O387       Cr394   2.018       .  S
O388       Cr394   1.947       .  S
O388        C389   1.250       .  A
C389        O390   1.274       .  A
C389        C878   1.486       .  S
O390       Cr395   2.057       .  S
O391       Cr395   1.980       .  S
O391        C392   1.259       .  A
C392       C1766   1.485       .  S
Cr393       O396   1.766       .  S
Cr394       O396   1.756       .  S
Cr395       O396   1.769       .  S
O397       Cr415   1.956       .  S
O397        C405   1.260       .  A
O398       Cr415   2.035       .  S
O398        C399   1.272       .  A
C399        O400   1.260       .  A
C399        C950   1.496       .  S
O400       Cr416   1.975       .  S
O401       Cr416   2.043       .  S
O401        C402   1.274       .  A
C402        O403   1.259       .  A
C402       C2102   1.495   1_554  S
O403       Cr417   1.968       .  S
O404       Cr417   2.039       .  S
O404        C405   1.275       .  A
C405        C653   1.498   1_554  S
O406       Cr415   2.027       .  S
O406        C414   1.268       .  A
O407       Cr415   1.960       .  S
O407        C408   1.257       .  A
C408        O409   1.272       .  A
C408        C701   1.484       .  S
O409       Cr416   2.028       .  S
O410       Cr416   1.951       .  S
O410        C411   1.252       .  A
C411        O412   1.270       .  A
C411        C686   1.476       .  S
O412       Cr417   2.035       .  S
O413       Cr417   1.980       .  S
O413        C414   1.258       .  A
C414       C1598   1.487       .  S
Cr415       O418   1.766       .  S
Cr416       O418   1.764       .  S
Cr417       O418   1.767       .  S
O419       Cr437   2.002       .  S
O419        C427   1.266       .  A
O420       Cr437   1.997       .  S
O420        C421   1.263       .  A
C421        O422   1.264       .  A
C421        C614   1.497       .  S
O422       Cr438   2.006       .  S
O423       Cr438   1.998       .  S
O423        C424   1.266       .  A
C424        O425   1.264       .  A
C424       C1709   1.479       .  S
O425       Cr439   2.002       .  S
O426       Cr439   1.999       .  S
O426        C427   1.265       .  A
C427        C806   1.497       .  S
O428       Cr437   1.997       .  S
O428        C436   1.261       .  A
O429       Cr437   1.998       .  S
O429        C430   1.264       .  A
C430        O431   1.262       .  A
C430        C677   1.480       .  S
O431       Cr438   1.985       .  S
O432       Cr438   1.989       .  S
O432        C433   1.261       .  A
C433        O434   1.268       .  A
C433        C629   1.480       .  S
O434       Cr439   2.014       .  S
O435       Cr439   2.013       .  S
O435        C436   1.265       .  A
C436       C1118   1.493       .  S
Cr437       O440   1.781       .  S
Cr438       O440   1.777       .  S
Cr439       O440   1.777       .  S
O441       Cr459   2.010       .  S
O441        C449   1.267       .  A
O442       Cr459   1.998       .  S
O442        C443   1.264       .  A
C443        O444   1.266       .  A
C443        C725   1.499       .  S
O444       Cr460   2.006       .  S
O445       Cr460   2.003       .  S
O445        C446   1.268       .  A
C446        O447   1.264       .  A
C446       C1205   1.487       .  S
O447       Cr461   1.999       .  S
O448       Cr461   1.983       .  S
O448        C449   1.263       .  A
C449        C902   1.482       .  S
O450       Cr459   1.997       .  S
O450        C458   1.260       .  A
O451       Cr459   2.000       .  S
O451        C452   1.264       .  A
C452        O453   1.262       .  A
C452        C638   1.483       .  S
O453       Cr460   1.990       .  S
O454       Cr460   1.981       .  S
O454        C455   1.261       .  A
C455        O456   1.265       .  A
C455        C710   1.467       .  S
O456       Cr461   2.001       .  S
O457       Cr461   2.010       .  S
O457        C458   1.263       .  A
C458       C2126   1.490       .  S
Cr459       O462   1.777       .  S
Cr460       O462   1.776       .  S
Cr461       O462   1.774       .  S
O463       Cr481   1.958       .  S
O463        C471   1.259       .  A
O464       Cr481   2.027       .  S
O464        C465   1.269       .  A
C465        O466   1.261       .  A
C465        C821   1.491       .  S
O466       Cr482   1.983       .  S
O467       Cr482   2.041       .  S
O467        C468   1.273       .  A
C468        O469   1.260       .  A
C468       C1886   1.500   1_556  S
O469       Cr483   1.973       .  S
O470       Cr483   2.046       .  S
O470        C471   1.277       .  A
C471        C605   1.494       .  S
O472       Cr481   2.026       .  S
O472        C480   1.268       .  A
O473       Cr481   1.958       .  S
O473        C474   1.256       .  A
C474        O475   1.273       .  A
C474        C557   1.490       .  S
O475       Cr482   2.031       .  S
O476       Cr482   1.961       .  S
O476        C477   1.255       .  A
C477        O478   1.272       .  A
C477        C581   1.478       .  S
O478       Cr483   2.039       .  S
O479       Cr483   1.987       .  S
O479        C480   1.260       .  A
C480       C1910   1.502       .  S
Cr481       O484   1.771       .  S
Cr482       O484   1.766       .  S
Cr483       O484   1.770       .  S
O485       Cr503   2.015       .  S
O485        C493   1.268       .  A
O486       Cr503   1.991       .  S
O486        C487   1.263       .  A
C487        O488   1.263       .  A
C487       C1037   1.490       .  S
O488       Cr504   2.000       .  S
O489       Cr504   1.998       .  S
O489        C490   1.267       .  A
C490        O491   1.264       .  A
C490       C1574   1.483   1_565  S
O491       Cr505   1.995       .  S
O492       Cr505   1.991       .  S
O492        C493   1.265       .  A
C493        C749   1.502       .  S
O494       Cr503   1.998       .  S
O494        C502   1.261       .  A
O495       Cr503   2.003       .  S
O495        C496   1.265       .  A
C496        O497   1.262       .  A
C496        C533   1.488       .  S
O497       Cr504   1.989       .  S
O498       Cr504   1.978       .  S
O498        C499   1.258       .  A
C499        O500   1.265       .  A
C499        C566   1.465       .  S
O500       Cr505   2.003       .  S
O501       Cr505   2.008       .  S
O501        C502   1.263       .  A
C502       C1661   1.496       .  S
Cr503       O506   1.775       .  S
Cr504       O506   1.776       .  S
Cr505       O506   1.774       .  S
O507       Cr525   1.958       .  S
O507        C515   1.258       .  A
O508       Cr525   2.027       .  S
O508        C509   1.270       .  A
C509        O510   1.258       .  A
C509        C662   1.489       .  S
O510       Cr526   1.965       .  S
O511       Cr526   2.037       .  S
O511        C512   1.273       .  A
C512        O513   1.257       .  A
C512       C2246   1.495   1_655  S
O513       Cr527   1.966       .  S
O514       Cr527   2.048       .  S
O514        C515   1.276       .  A
C515        C974   1.495   1_655  S
O516       Cr525   2.023       .  S
O516        C524   1.268       .  A
O517       Cr525   1.965       .  S
O517        C518   1.258       .  A
C518        O519   1.271       .  A
C518        C590   1.495       .  S
O519       Cr526   2.027       .  S
O520       Cr526   1.957       .  S
O520        C521   1.253       .  A
C521        O522   1.273       .  A
C521        C542   1.477       .  S
O522       Cr527   2.045       .  S
O523       Cr527   1.980       .  S
O523        C524   1.260       .  A
C524       C1334   1.500       .  S
Cr525       O528   1.768       .  S
Cr526       O528   1.765       .  S
Cr527       O528   1.768       .  S
C529        C530   1.405       .  A
C529        C534   1.405       .  A
C529        H539   1.084       .  S
C530        C535   1.488       .  S
C530        C531   1.412       .  A
C531        C532   1.400       .  A
C531        S536   1.805       .  S
C532        C533   1.407       .  A
C532        H537   1.084       .  S
C533        C534   1.416       .  A
C534        S538   1.802       .  S
C535        C540   1.411       .  A
C535        C544   1.403       .  A
S536        H552   1.405       .  S
S538        H549   1.407       .  S
C540        C541   1.406       .  A
C540        S545   1.806       .  S
C541        C542   1.404       .  A
C541        H546   1.082       .  S
C542        C543   1.413       .  A
C543        C544   1.403       .  A
C543        S547   1.804       .  S
C544        H548   1.084       .  S
S545        H550   1.405       .  S
S547        H551   1.406       .  S
C553        C554   1.395       .  A
C553        C558   1.396       .  A
C553        H563   1.084       .  S
C554        C559   1.477       .  S
C554        C555   1.416       .  A
C555        C556   1.404       .  A
C555        S560   1.809       .  S
C556        C557   1.406       .  A
C556        H561   1.083       .  S
C557        C558   1.422       .  A
C558        S562   1.801       .  S
C559        C564   1.409       .  A
C559        C568   1.400       .  A
S560        H576   1.401       .  S
S562        H573   1.406       .  S
C564        C565   1.405       .  A
C564        S569   1.805       .  S
C565        C566   1.403       .  A
C565        H570   1.084       .  S
C566        C567   1.412       .  A
C567        C568   1.397       .  A
C567        S571   1.804       .  S
C568        H572   1.084       .  S
S569        H574   1.407       .  S
S571        H575   1.407       .  S
C577        C578   1.403       .  A
C577        C582   1.403       .  A
C577        H587   1.083       .  S
C578        C583   1.485       .  S
C578        C579   1.413       .  A
C579        C580   1.402       .  A
C579        S584   1.803       .  S
C580        C581   1.404       .  A
C580        H585   1.083       .  S
C581        C582   1.414       .  A
C582        S586   1.803       .  S
C583        C588   1.406       .  A
C583        C592   1.403       .  A
S584        H600   1.405       .  S
S586        H597   1.407       .  S
C588        C589   1.404       .  A
C588        S593   1.806       .  S
C589        C590   1.412       .  A
C589        H594   1.082       .  S
C590        C591   1.418       .  A
C591        C592   1.404       .  A
C591        S595   1.801       .  S
C592        H596   1.083       .  S
S593        H598   1.407       .  S
S595        H599   1.408       .  S
C601        C602   1.408       .  A
C601        C606   1.409       .  A
C601        H611   1.083       .  S
C602        C607   1.495       .  S
C602        C603   1.413       .  A
C603        C604   1.400       .  A
C603        S608   1.806       .  S
C604        C605   1.409   1_554  A
C604        H609   1.085       .  S
C605        C606   1.416   1_556  A
C606        S610   1.801   1_554  S
C607        C612   1.414       .  A
C607        C616   1.401       .  A
S608        H624   1.405       .  S
S610        H621   1.406       .  S
C612        C613   1.410       .  A
C612        S617   1.806       .  S
C613        C614   1.408       .  A
C613        H618   1.083       .  S
C614        C615   1.420       .  A
C615        C616   1.402       .  A
C615        S619   1.801       .  S
C616        H620   1.084       .  S
S617        H622   1.407       .  S
S619        H623   1.406       .  S
C625        C626   1.404       .  A
C625        C630   1.402       .  A
C625        H635   1.084       .  S
C626        C631   1.491       .  S
C626        C627   1.417       .  A
C627        C628   1.403       .  A
C627        S632   1.804       .  S
C628        C629   1.404       .  A
C628        H633   1.083       .  S
C629        C630   1.411       .  A
C630        S634   1.794       .  S
C631        C636   1.410       .  A
C631        C640   1.406       .  A
S632        H648   1.405       .  S
S634        H645   1.405       .  S
C636        C637   1.405       .  A
C636        S641   1.807       .  S
C637        C638   1.407       .  A
C637        H642   1.083       .  S
C638        C639   1.413       .  A
C639        C640   1.404       .  A
C639        S643   1.802       .  S
C640        H644   1.084       .  S
S641        H646   1.407       .  S
S643        H647   1.406       .  S
C649        C650   1.404       .  A
C649        C654   1.410       .  A
C649        H659   1.082       .  S
C650        C655   1.481       .  S
C650        C651   1.409       .  A
C651        C652   1.396       .  A
C651        S656   1.811       .  S
C652        C653   1.411       .  A
C652        H657   1.083       .  S
C653        C654   1.419       .  A
C654        S658   1.807       .  S
C655        C660   1.409       .  A
C655        C664   1.399       .  A
S656        H672   1.401       .  S
S658        H669   1.407       .  S
C660        C661   1.407   1_455  A
C660        S665   1.805   1_455  S
C661        C662   1.407       .  A
C661        H666   1.082       .  S
C662        C663   1.420   1_655  A
C663        C664   1.399       .  A
C663        S667   1.803       .  S
C664        H668   1.084       .  S
S665        H670   1.407       .  S
S667        H671   1.407       .  S
C673        C674   1.407       .  A
C673        C678   1.402       .  A
C673        H683   1.085       .  S
C674        C679   1.486       .  S
C674        C675   1.412       .  A
C675        C676   1.399       .  A
C675        S680   1.806       .  S
C676        C677   1.405       .  A
C676        H681   1.085       .  S
C677        C678   1.412       .  A
C678        S682   1.803       .  S
C679        C684   1.414       .  A
C679        C688   1.402       .  A
S680        H696   1.406       .  S
S682        H693   1.407       .  S
C684        C685   1.405       .  A
C684        S689   1.806       .  S
C685        C686   1.403       .  A
C685        H690   1.082       .  S
C686        C687   1.416       .  A
C687        C688   1.398       .  A
C687        S691   1.806       .  S
C688        H692   1.083       .  S
S689        H694   1.407       .  S
S691        H695   1.407       .  S
C697        C698   1.406       .  A
C697        C702   1.402       .  A
C697        H707   1.084       .  S
C698        C703   1.482       .  S
C698        C699   1.409       .  A
C699        C700   1.399       .  A
C699        S704   1.804       .  S
C700        C701   1.410       .  A
C700        H705   1.085       .  S
C701        C702   1.412       .  A
C702        S706   1.802       .  S
C703        C708   1.409       .  A
C703        C712   1.406       .  A
S704        H720   1.405       .  S
S706        H717   1.407       .  S
C708        C709   1.399       .  A
C708        S713   1.808       .  S
C709        C710   1.402       .  A
C709        H714   1.084       .  S
C710        C711   1.409       .  A
C711        C712   1.407       .  A
C711        S715   1.807       .  S
C712        H716   1.084       .  S
S713        H718   1.407       .  S
S715        H719   1.407       .  S
C721        C722   1.404       .  A
C721        C726   1.406       .  A
C721        H731   1.084       .  S
C722        C727   1.491       .  S
C722        C723   1.413       .  A
C723        C724   1.404       .  A
C723        S728   1.807       .  S
C724        C725   1.410       .  A
C724        H729   1.084       .  S
C725        C726   1.419       .  A
C726        S730   1.801       .  S
C727        C732   1.413       .  A
C727        C736   1.400       .  A
S728        H744   1.402       .  S
S730        H741   1.407       .  S
C732        C733   1.412       .  A
C732        S737   1.805       .  S
C733        C734   1.405       .  A
C733        H738   1.082       .  S
C734        C735   1.418       .  A
C735        C736   1.401       .  A
C735        S739   1.806       .  S
C736        H740   1.084       .  S
S737        H742   1.407       .  S
S739        H743   1.404       .  S
C745        C746   1.401       .  A
C745        C750   1.403   1_545  A
C745        H755   1.084       .  S
C746        C751   1.491       .  S
C746        C747   1.413       .  A
C747        C748   1.406       .  A
C747        S752   1.804       .  S
C748        C749   1.411   1_545  A
C748        H753   1.083       .  S
C749        C750   1.421       .  A
C750        S754   1.798       .  S
C751        C756   1.410       .  A
C751        C760   1.399       .  A
S752        H768   1.405       .  S
S754        H765   1.401       .  S
C756        C757   1.411       .  A
C756        S761   1.805       .  S
C757        C758   1.411       .  A
C757        H762   1.082       .  S
C758        C759   1.424       .  A
C759        C760   1.402       .  A
C759        S763   1.802       .  S
C760        H764   1.084       .  S
S761        H766   1.406       .  S
S763        H767   1.408       .  S
C769        C770   1.405       .  A
C769        C774   1.402       .  A
C769        H779   1.083       .  S
C770        C775   1.483       .  S
C770        C771   1.413       .  A
C771        C772   1.399       .  A
C771        S776   1.805       .  S
C772        C773   1.403       .  A
C772        H777   1.085       .  S
C773        C774   1.412       .  A
C774        S778   1.804       .  S
C775        C780   1.405       .  A
C775        C784   1.401       .  A
S776        H792   1.405       .  S
S778        H789   1.405       .  S
C780        C781   1.403       .  A
C780        S785   1.807       .  S
C781        C782   1.413       .  A
C781        H786   1.082       .  S
C782        C783   1.421       .  A
C783        C784   1.405       .  A
C783        S787   1.809       .  S
C784        H788   1.083       .  S
S785        H790   1.407       .  S
S787        H791   1.406       .  S
C793        C794   1.403       .  A
C793        C798   1.405       .  A
C793        H803   1.084       .  S
C794        C799   1.492       .  S
C794        C795   1.415       .  A
C795        C796   1.404       .  A
C795        S800   1.804       .  S
C796        C797   1.406       .  A
C796        H801   1.084   1_565  S
C797        C798   1.418       .  A
C798        S802   1.804       .  S
C799        C804   1.409       .  A
C799        C808   1.405       .  A
S800        H816   1.405       .  S
S802        H813   1.408       .  S
C804        C805   1.404       .  A
C804        S809   1.808       .  S
C805        C806   1.410       .  A
C805        H810   1.083       .  S
C806        C807   1.418       .  A
C807        C808   1.408       .  A
C807        S811   1.801       .  S
C808        H812   1.084       .  S
S809        H814   1.407       .  S
S811        H815   1.407       .  S
C817        C818   1.406   1_556  A
C817        C822   1.410       .  A
C817        H827   1.083       .  S
C818        C823   1.494       .  S
C818        C819   1.414       .  A
C819        C820   1.403       .  A
C819        S824   1.804       .  S
C820        C821   1.405   1_554  A
C820        H825   1.084       .  S
C821        C822   1.416       .  A
C822        S826   1.808       .  S
C823        C828   1.413       .  A
C823        C832   1.400       .  A
S824        H840   1.406       .  S
S826        H837   1.407       .  S
C828        C829   1.412       .  A
C828        S833   1.806       .  S
C829        C830   1.408       .  A
C829        H834   1.082       .  S
C830        C831   1.421       .  A
C831        C832   1.401       .  A
C831        S835   1.803       .  S
C832        H836   1.084       .  S
S833        H838   1.407       .  S
S835        H839   1.408   1_565  S
C841        C842   1.405       .  A
C841        C846   1.403       .  A
C841        H851   1.083       .  S
C842        C847   1.492       .  S
C842        C843   1.415       .  A
C843        C844   1.401       .  A
C843        S848   1.805       .  S
C844        C845   1.404       .  A
C844        H849   1.085       .  S
C845        C846   1.409       .  A
C846        S850   1.802       .  S
C847        C852   1.414       .  A
C847        C856   1.402       .  A
S848        H864   1.406       .  S
S850        H861   1.407       .  S
C852        C853   1.404       .  A
C852        S857   1.807       .  S
C853        C854   1.405       .  A
C853        H858   1.082       .  S
C854        C855   1.421       .  A
C855        C856   1.403       .  A
C855        S859   1.811       .  S
C856        H860   1.082       .  S
S857        H862   1.407       .  S
S859        H863   1.407       .  S
C865        C866   1.403       .  A
C865        C870   1.401       .  A
C865        H875   1.083       .  S
C866        C871   1.490       .  S
C866        C867   1.413       .  A
C867        C868   1.405       .  A
C867        S872   1.803       .  S
C868        C869   1.407       .  A
C868        H873   1.084       .  S
C869        C870   1.414       .  A
C870        S874   1.802       .  S
C871        C876   1.408       .  A
C871        C880   1.410       .  A
S872        H888   1.406       .  S
S874        H885   1.406       .  S
C876        C877   1.394       .  A
C876        S881   1.810       .  S
C877        C878   1.409       .  A
C877        H882   1.083       .  S
C878        C879   1.412       .  A
C879        C880   1.410       .  A
C879        S883   1.800       .  S
C880        H884   1.083       .  S
S881        H886   1.407       .  S
S883        H887   1.407       .  S
C889        C890   1.404       .  A
C889        C894   1.407       .  A
C889        H899   1.082       .  S
C890        C895   1.486       .  S
C890        C891   1.410       .  A
C891        C892   1.400       .  A
C891        S896   1.803       .  S
C892        C893   1.406       .  A
C892        H897   1.083       .  S
C893        C894   1.417       .  A
C894        S898   1.808       .  S
C895        C900   1.410       .  A
C895        C904   1.402       .  A
S896        H912   1.406       .  S
S898        H909   1.407       .  S
C900        C901   1.407       .  A
C900        S905   1.806       .  S
C901        C902   1.406       .  A
C901        H906   1.082       .  S
C902        C903   1.415       .  A
C903        C904   1.400       .  A
C903        S907   1.804       .  S
C904        H908   1.084       .  S
S905        H910   1.407       .  S
S907        H911   1.407       .  S
C913        C914   1.400       .  A
C913        C918   1.397       .  A
C913        H923   1.084       .  S
C914        C919   1.485       .  S
C914        C915   1.415       .  A
C915        C916   1.404       .  A
C915        S920   1.803       .  S
C916        C917   1.403       .  A
C916        H921   1.085       .  S
C917        C918   1.419       .  A
C918        S922   1.807       .  S
C919        C924   1.409       .  A
C919        C928   1.402       .  A
S920        H936   1.406       .  S
S922        H933   1.403       .  S
C924        C925   1.404       .  A
C924        S929   1.807       .  S
C925        C926   1.409       .  A
C925        H930   1.082       .  S
C926        C927   1.419       .  A
C927        C928   1.400       .  A
C927        S931   1.802       .  S
C928        H932   1.083       .  S
S929        H934   1.407       .  S
S931        H935   1.408       .  S
C937        C938   1.408       .  A
C937        C942   1.411       .  A
C937        H947   1.084       .  S
C938        C943   1.496       .  S
C938        C939   1.413       .  A
C939        C940   1.401       .  A
C939        S944   1.805       .  S
C940        C941   1.406       .  A
C940        H945   1.084       .  S
C941        C942   1.415       .  A
C942        S946   1.802       .  S
C943        C948   1.414       .  A
C943        C952   1.402       .  A
S944        H960   1.406       .  S
S946        H957   1.406       .  S
C948        C949   1.409       .  A
C948        S953   1.807       .  S
C949        C950   1.406   1_556  A
C949        H954   1.083   1_556  S
C950        C951   1.420   1_554  A
C951        C952   1.406       .  A
C951        S955   1.803   1_556  S
C952        H956   1.084       .  S
S953        H958   1.407       .  S
S955        H959   1.408       .  S
C961        C962   1.402       .  A
C961        C966   1.403       .  A
C961        H971   1.084       .  S
C962        C967   1.493       .  S
C962        C963   1.414       .  A
C963        C964   1.406       .  A
C963        S968   1.804       .  S
C964        C965   1.409       .  A
C964        H969   1.084       .  S
C965        C966   1.421       .  A
C966        S970   1.803       .  S
C967        C972   1.409       .  A
C967        C976   1.407       .  A
S968        H984   1.405       .  S
S970        H981   1.408       .  S
C972        C973   1.403       .  A
C972        S977   1.808       .  S
C973        C974   1.409       .  A
C973        H978   1.082       .  S
C974        C975   1.417       .  A
C975        C976   1.410       .  A
C975        S979   1.801   1_455  S
C976        H980   1.083       .  S
S977        H982   1.407       .  S
S979        H983   1.406       .  S
C985        C986   1.399       .  A
C985        C990   1.399       .  A
C985        H995   1.084       .  S
C986        C991   1.482       .  S
C986        C987   1.413       .  A
C987        C988   1.404       .  A
C987        S992   1.804       .  S
C988        C989   1.407       .  A
C988        H993   1.084       .  S
C989        C990   1.422       .  A
C990        S994   1.805       .  S
C991        C996   1.407       .  A
C991       C1000   1.404       .  A
S992       H1008   1.404       .  S
S994       H1005   1.402       .  S
C996        C997   1.402       .  A
C996       S1001   1.806       .  S
C997        C998   1.408       .  A
C997       H1002   1.083       .  S
C998        C999   1.412       .  A
C999       C1000   1.406       .  A
C999       S1003   1.807       .  S
C1000      H1004   1.083       .  S
S1001      H1006   1.407       .  S
S1003      H1007   1.407       .  S
C1009      C1010   1.405       .  A
C1009      C1014   1.405       .  A
C1009      H1019   1.083       .  S
C1010      C1015   1.488       .  S
C1010      C1011   1.412       .  A
C1011      C1012   1.400       .  A
C1011      S1016   1.805       .  S
C1012      C1013   1.408       .  A
C1012      H1017   1.084       .  S
C1013      C1014   1.415       .  A
C1014      S1018   1.802       .  S
C1015      C1020   1.410       .  A
C1015      C1024   1.402       .  A
S1016      H1032   1.405       .  S
S1018      H1029   1.407       .  S
C1020      C1021   1.406   1_655  A
C1020      S1025   1.807   1_655  S
C1021      C1022   1.408   1_455  A
C1021      H1026   1.083       .  S
C1022      C1023   1.418       .  A
C1023      C1024   1.403       .  A
C1023      S1027   1.804       .  S
C1024      H1028   1.084       .  S
S1025      H1030   1.407       .  S
S1027      H1031   1.405       .  S
C1033      C1034   1.399       .  A
C1033      C1038   1.401   1_545  A
C1033      H1043   1.083       .  S
C1034      C1039   1.483       .  S
C1034      C1035   1.414       .  A
C1035      C1036   1.402   1_545  A
C1035      S1040   1.805       .  S
C1036      C1037   1.405       .  A
C1036      H1041   1.083       .  S
C1037      C1038   1.420       .  A
C1038      S1042   1.800       .  S
C1039      C1044   1.406       .  A
C1039      C1048   1.406       .  A
S1040      H1056   1.405       .  S
S1042      H1053   1.405   1_565  S
C1044      C1045   1.398       .  A
C1044      S1049   1.808       .  S
C1045      C1046   1.407       .  A
C1045      H1050   1.081       .  S
C1046      C1047   1.415       .  A
C1047      C1048   1.407       .  A
C1047      S1051   1.801   1_655  S
C1048      H1052   1.084       .  S
S1049      H1054   1.407       .  S
S1051      H1055   1.406       .  S
C1057      C1058   1.403       .  A
C1057      C1062   1.402       .  A
C1057      H1067   1.083       .  S
C1058      C1063   1.483       .  S
C1058      C1059   1.410       .  A
C1059      C1060   1.400       .  A
C1059      S1064   1.805       .  S
C1060      C1061   1.410       .  A
C1060      H1065   1.083       .  S
C1061      C1062   1.416       .  A
C1062      S1066   1.801       .  S
C1063      C1068   1.410       .  A
C1063      C1072   1.400       .  A
S1064      H1080   1.405       .  S
S1066      H1077   1.408       .  S
C1068      C1069   1.407       .  A
C1068      S1073   1.806       .  S
C1069      C1070   1.407       .  A
C1069      H1074   1.083       .  S
C1070      C1071   1.418       .  A
C1071      C1072   1.398       .  A
C1071      S1075   1.805       .  S
C1072      H1076   1.084       .  S
S1073      H1078   1.407       .  S
S1075      H1079   1.403       .  S
C1081      C1082   1.404       .  A
C1081      C1086   1.404       .  A
C1081      H1091   1.085       .  S
C1082      C1087   1.485       .  S
C1082      C1083   1.409       .  A
C1083      C1084   1.398       .  A
C1083      S1088   1.805       .  S
C1084      C1085   1.412       .  A
C1084      H1089   1.085       .  S
C1085      C1086   1.418       .  A
C1086      S1090   1.800       .  S
C1087      C1092   1.411       .  A
C1087      C1096   1.401       .  A
S1088      H1104   1.405       .  S
S1090      H1101   1.408       .  S
C1092      C1093   1.407       .  A
C1092      S1097   1.805       .  S
C1093      C1094   1.406       .  A
C1093      H1098   1.083       .  S
C1094      C1095   1.417       .  A
C1095      C1096   1.399       .  A
C1095      S1099   1.805       .  S
C1096      H1100   1.084       .  S
S1097      H1102   1.407       .  S
S1099      H1103   1.407       .  S
C1105      C1106   1.402       .  A
C1105      C1110   1.403       .  A
C1105      H1115   1.083       .  S
C1106      C1111   1.496       .  S
C1106      C1107   1.417       .  A
C1107      C1108   1.409       .  A
C1107      S1112   1.803       .  S
C1108      C1109   1.406       .  A
C1108      H1113   1.084       .  S
C1109      C1110   1.416       .  A
C1110      S1114   1.809       .  S
C1111      C1116   1.412       .  A
C1111      C1120   1.402       .  A
S1112      H1128   1.405       .  S
S1114      H1125   1.407       .  S
C1116      C1117   1.406       .  A
C1116      S1121   1.808       .  S
C1117      C1118   1.406       .  A
C1117      H1122   1.083       .  S
C1118      C1119   1.422       .  A
C1119      C1120   1.407       .  A
C1119      S1123   1.801       .  S
C1120      H1124   1.084       .  S
S1121      H1126   1.407       .  S
S1123      H1127   1.395       .  S
C1129      C1130   1.405       .  A
C1129      C1134   1.403       .  A
C1129      H1139   1.084       .  S
C1130      C1135   1.491       .  S
C1130      C1131   1.414       .  A
C1131      C1132   1.404       .  A
C1131      S1136   1.803       .  S
C1132      C1133   1.404       .  A
C1132      H1137   1.084       .  S
C1133      C1134   1.414       .  A
C1134      S1138   1.803       .  S
C1135      C1140   1.411       .  A
C1135      C1144   1.403       .  A
S1136      H1152   1.406       .  S
S1138      H1149   1.406       .  S
C1140      C1141   1.407       .  A
C1140      S1145   1.806       .  S
C1141      C1142   1.408       .  A
C1141      H1146   1.082       .  S
C1142      C1143   1.417       .  A
C1143      C1144   1.403       .  A
C1143      S1147   1.799       .  S
C1144      H1148   1.084       .  S
S1145      H1150   1.407       .  S
S1147      H1151   1.404       .  S
C1153      C1154   1.403       .  A
C1153      C1158   1.408       .  A
C1153      H1163   1.082       .  S
C1154      C1159   1.488       .  S
C1154      C1155   1.413       .  A
C1155      C1156   1.404       .  A
C1155      S1160   1.806       .  S
C1156      C1157   1.407       .  A
C1156      H1161   1.083   1_655  S
C1157      C1158   1.420       .  A
C1158      S1162   1.810       .  S
C1159      C1164   1.409       .  A
C1159      C1168   1.403       .  A
S1160      H1176   1.403       .  S
S1162      H1173   1.407       .  S
C1164      C1165   1.404       .  A
C1164      S1169   1.807       .  S
C1165      C1166   1.407       .  A
C1165      H1170   1.083       .  S
C1166      C1167   1.418       .  A
C1167      C1168   1.410       .  A
C1167      S1171   1.804       .  S
C1168      H1172   1.083       .  S
S1169      H1174   1.407       .  S
S1171      H1175   1.406       .  S
C1177      C1178   1.401       .  A
C1177      C1182   1.404       .  A
C1177      H1187   1.083       .  S
C1178      C1183   1.492       .  S
C1178      C1179   1.416       .  A
C1179      C1180   1.403       .  A
C1179      S1184   1.804       .  S
C1180      C1181   1.405       .  A
C1180      H1185   1.084       .  S
C1181      C1182   1.420       .  A
C1182      S1186   1.808       .  S
C1183      C1188   1.416       .  A
C1183      C1192   1.404       .  A
S1184      H1200   1.406       .  S
S1186      H1197   1.406       .  S
C1188      C1189   1.406       .  A
C1188      S1193   1.807       .  S
C1189      C1190   1.403       .  A
C1189      H1194   1.083       .  S
C1190      C1191   1.412       .  A
C1191      C1192   1.400       .  A
C1191      S1195   1.800       .  S
C1192      H1196   1.083       .  S
S1193      H1198   1.406       .  S
S1195      H1199   1.407       .  S
C1201      C1202   1.405       .  A
C1201      C1206   1.407       .  A
C1201      H1211   1.085       .  S
C1202      C1207   1.492       .  S
C1202      C1203   1.413       .  A
C1203      C1204   1.402       .  A
C1203      S1208   1.804       .  S
C1204      C1205   1.406       .  A
C1204      H1209   1.084       .  S
C1205      C1206   1.415       .  A
C1206      S1210   1.799       .  S
C1207      C1212   1.414       .  A
C1207      C1216   1.403       .  A
S1208      H1224   1.406       .  S
S1210      H1221   1.406       .  S
C1212      C1213   1.408       .  A
C1212      S1217   1.806       .  S
C1213      C1214   1.402       .  A
C1213      H1218   1.082       .  S
C1214      C1215   1.412       .  A
C1215      C1216   1.407       .  A
C1215      S1219   1.803       .  S
C1216      H1220   1.081       .  S
S1217      H1222   1.407       .  S
S1219      H1223   1.406       .  S
C1225      C1226   1.403       .  A
C1225      C1230   1.403       .  A
C1225      H1235   1.084       .  S
C1226      C1231   1.497       .  S
C1226      C1227   1.418       .  A
C1227      C1228   1.408       .  A
C1227      S1232   1.805       .  S
C1228      C1229   1.406       .  A
C1228      H1233   1.084       .  S
C1229      C1230   1.418       .  A
C1230      S1234   1.802       .  S
C1231      C1236   1.411       .  A
C1231      C1240   1.401       .  A
S1232      H1248   1.405       .  S
S1234      H1245   1.404       .  S
C1236      C1237   1.411       .  A
C1236      S1241   1.805       .  S
C1237      C1238   1.411       .  A
C1237      H1242   1.082   1_556  S
C1238      C1239   1.424       .  A
C1239      C1240   1.406       .  A
C1239      S1243   1.812       .  S
C1240      H1244   1.083       .  S
S1241      H1246   1.407       .  S
S1243      H1247   1.406       .  S
C1249      C1250   1.402       .  A
C1249      C1254   1.403       .  A
C1249      H1259   1.084       .  S
C1250      C1255   1.491       .  S
C1250      C1251   1.415       .  A
C1251      C1252   1.401       .  A
C1251      S1256   1.804       .  S
C1252      C1253   1.404       .  A
C1252      H1257   1.084       .  S
C1253      C1254   1.423       .  A
C1254      S1258   1.804       .  S
C1255      C1260   1.414       .  A
C1255      C1264   1.404       .  A
S1256      H1272   1.406       .  S
S1258      H1269   1.408       .  S
C1260      C1261   1.408       .  A
C1260      S1265   1.807       .  S
C1261      C1262   1.405       .  A
C1261      H1266   1.083       .  S
C1262      C1263   1.412       .  A
C1263      C1264   1.400       .  A
C1263      S1267   1.798       .  S
C1264      H1268   1.084       .  S
S1265      H1270   1.407       .  S
S1267      H1271   1.407       .  S
C1273      C1274   1.404       .  A
C1273      C1278   1.403       .  A
C1273      H1283   1.083       .  S
C1274      C1279   1.485       .  S
C1274      C1275   1.412       .  A
C1275      C1276   1.400       .  A
C1275      S1280   1.804       .  S
C1276      C1277   1.404       .  A
C1276      H1281   1.084       .  S
C1277      C1278   1.412       .  A
C1278      S1282   1.804       .  S
C1279      C1284   1.413       .  A
C1279      C1288   1.397       .  A
S1280      H1296   1.405       .  S
S1282      H1293   1.405       .  S
C1284      C1285   1.409       .  A
C1284      S1289   1.806       .  S
C1285      C1286   1.405       .  A
C1285      H1290   1.082       .  S
C1286      C1287   1.421       .  A
C1287      C1288   1.400       .  A
C1287      S1291   1.803       .  S
C1288      H1292   1.084       .  S
S1289      H1294   1.406       .  S
S1291      H1295   1.403       .  S
C1297      C1298   1.405       .  A
C1297      C1302   1.404       .  A
C1297      H1307   1.085       .  S
C1298      C1303   1.497       .  S
C1298      C1299   1.417       .  A
C1299      C1300   1.403       .  A
C1299      S1304   1.805       .  S
C1300      C1301   1.406       .  A
C1300      H1305   1.085       .  S
C1301      C1302   1.418       .  A
C1302      S1306   1.800       .  S
C1303      C1308   1.415       .  A
C1303      C1312   1.403       .  A
S1304      H1320   1.406       .  S
S1306      H1317   1.407       .  S
C1308      C1309   1.409       .  A
C1308      S1313   1.807       .  S
C1309      C1310   1.406       .  A
C1309      H1314   1.083       .  S
C1310      C1311   1.416       .  A
C1311      C1312   1.401       .  A
C1311      S1315   1.795       .  S
C1312      H1316   1.084       .  S
S1313      H1318   1.407       .  S
S1315      H1319   1.406       .  S
C1321      C1322   1.406       .  A
C1321      C1326   1.409       .  A
C1321      H1331   1.084       .  S
C1322      C1327   1.491       .  S
C1322      C1323   1.412       .  A
C1323      C1324   1.401       .  A
C1323      S1328   1.808       .  S
C1324      C1325   1.410       .  A
C1324      H1329   1.085       .  S
C1325      C1326   1.417       .  A
C1326      S1330   1.800       .  S
C1327      C1332   1.407       .  A
C1327      C1336   1.403       .  A
S1328      H1344   1.402       .  S
S1330      H1341   1.408       .  S
C1332      C1333   1.406       .  A
C1332      S1337   1.806       .  S
C1333      C1334   1.411       .  A
C1333      H1338   1.082       .  S
C1334      C1335   1.420       .  A
C1335      C1336   1.410       .  A
C1335      S1339   1.808       .  S
C1336      H1340   1.081       .  S
S1337      H1342   1.407       .  S
S1339      H1343   1.407       .  S
C1345      C1346   1.401       .  A
C1345      C1350   1.400       .  A
C1345      H1355   1.083       .  S
C1346      C1351   1.488       .  S
C1346      C1347   1.415       .  A
C1347      C1348   1.406       .  A
C1347      S1352   1.804       .  S
C1348      C1349   1.406       .  A
C1348      H1353   1.083       .  S
C1349      C1350   1.417       .  A
C1350      S1354   1.799       .  S
C1351      C1356   1.410       .  A
C1351      C1360   1.405       .  A
S1352      H1368   1.406       .  S
S1354      H1365   1.405       .  S
C1356      C1357   1.402       .  A
C1356      S1361   1.808       .  S
C1357      C1358   1.405       .  A
C1357      H1362   1.083       .  S
C1358      C1359   1.414       .  A
C1359      C1360   1.406       .  A
C1359      S1363   1.800       .  S
C1360      H1364   1.083       .  S
S1361      H1366   1.407       .  S
S1363      H1367   1.405       .  S
C1369      C1370   1.404       .  A
C1369      C1374   1.404       .  A
C1369      H1379   1.085       .  S
C1370      C1375   1.493       .  S
C1370      C1371   1.417       .  A
C1371      C1372   1.404       .  A
C1371      S1376   1.805       .  S
C1372      C1373   1.403       .  A
C1372      H1377   1.084       .  S
C1373      C1374   1.417       .  A
C1374      S1378   1.805       .  S
C1375      C1380   1.411       .  A
C1375      C1384   1.402       .  A
S1376      H1392   1.406       .  S
S1378      H1389   1.404       .  S
C1380      C1381   1.407       .  A
C1380      S1385   1.806       .  S
C1381      C1382   1.409       .  A
C1381      H1386   1.082   1_554  S
C1382      C1383   1.423       .  A
C1383      C1384   1.406       .  A
C1383      S1387   1.811       .  S
C1384      H1388   1.083       .  S
S1385      H1390   1.407   1_554  S
S1387      H1391   1.407       .  S
C1393      C1394   1.398       .  A
C1393      C1398   1.394       .  A
C1393      H1403   1.084       .  S
C1394      C1399   1.479       .  S
C1394      C1395   1.414       .  A
C1395      C1396   1.404       .  A
C1395      S1400   1.804       .  S
C1396      C1397   1.406       .  A
C1396      H1401   1.083   1_554  S
C1397      C1398   1.420       .  A
C1398      S1402   1.804       .  S
C1399      C1404   1.407       .  A
C1399      C1408   1.399       .  A
S1400      H1416   1.405       .  S
S1402      H1413   1.407       .  S
C1404      C1405   1.404   1_655  A
C1404      S1409   1.806   1_655  S
C1405      C1406   1.408       .  A
C1405      H1410   1.083       .  S
C1406      C1407   1.420   1_455  A
C1407      C1408   1.402       .  A
C1407      S1411   1.811       .  S
C1408      H1412   1.084       .  S
S1409      H1414   1.407       .  S
S1411      H1415   1.407       .  S
C1417      C1418   1.396       .  A
C1417      C1422   1.392       .  A
C1417      H1427   1.085       .  S
C1418      C1423   1.479       .  S
C1418      C1419   1.415       .  A
C1419      C1420   1.405       .  A
C1419      S1424   1.805       .  S
C1420      C1421   1.406       .  A
C1420      H1425   1.085       .  S
C1421      C1422   1.421       .  A
C1422      S1426   1.806       .  S
C1423      C1428   1.411       .  A
C1423      C1432   1.395       .  A
S1424      H1440   1.404       .  S
S1426      H1437   1.399       .  S
C1428      C1429   1.404       .  A
C1428      S1433   1.806       .  S
C1429      C1430   1.405       .  A
C1429      H1434   1.083       .  S
C1430      C1431   1.423       .  A
C1431      C1432   1.400       .  A
C1431      S1435   1.806       .  S
C1432      H1436   1.083       .  S
S1433      H1438   1.407       .  S
S1435      H1439   1.407       .  S
C1441      C1442   1.404       .  A
C1441      C1446   1.406       .  A
C1441      H1451   1.083       .  S
C1442      C1447   1.502       .  S
C1442      C1443   1.416       .  A
C1443      C1444   1.408       .  A
C1443      S1448   1.803       .  S
C1444      C1445   1.409       .  A
C1444      H1449   1.084   1_655  S
C1445      C1446   1.420       .  A
C1446      S1450   1.811       .  S
C1447      C1452   1.414       .  A
C1447      C1456   1.409       .  A
S1448      H1464   1.406       .  S
S1450      H1461   1.407       .  S
C1452      C1453   1.405       .  A
C1452      S1457   1.808       .  S
C1453      C1454   1.405       .  A
C1453      H1458   1.084       .  S
C1454      C1455   1.415       .  A
C1455      C1456   1.409       .  A
C1455      S1459   1.803       .  S
C1456      H1460   1.083       .  S
S1457      H1462   1.407       .  S
S1459      H1463   1.407       .  S
C1465      C1466   1.408       .  A
C1465      C1470   1.416       .  A
C1465      H1475   1.081       .  S
C1466      C1471   1.490       .  S
C1466      C1467   1.408       .  A
C1467      C1468   1.396       .  A
C1467      S1472   1.805       .  S
C1468      C1469   1.410       .  A
C1468      H1473   1.082       .  S
C1469      C1470   1.416       .  A
C1470      S1474   1.805       .  S
C1471      C1476   1.410       .  A
C1471      C1480   1.404       .  A
S1472      H1488   1.405       .  S
S1474      H1485   1.406       .  S
C1476      C1477   1.408       .  A
C1476      S1481   1.805       .  S
C1477      C1478   1.408       .  A
C1477      H1482   1.083       .  S
C1478      C1479   1.417       .  A
C1479      C1480   1.404       .  A
C1479      S1483   1.803       .  S
C1480      H1484   1.083       .  S
S1481      H1486   1.407       .  S
S1483      H1487   1.407       .  S
C1489      C1490   1.400       .  A
C1489      C1494   1.403       .  A
C1489      H1499   1.084       .  S
C1490      C1495   1.488       .  S
C1490      C1491   1.413       .  A
C1491      C1492   1.405       .  A
C1491      S1496   1.805       .  S
C1492      C1493   1.410       .  A
C1492      H1497   1.083       .  S
C1493      C1494   1.424       .  A
C1494      S1498   1.803       .  S
C1495      C1500   1.410       .  A
C1495      C1504   1.400       .  A
S1496      H1512   1.403       .  S
S1498      H1509   1.405       .  S
C1500      C1501   1.409       .  A
C1500      S1505   1.805       .  S
C1501      C1502   1.408       .  A
C1501      H1506   1.082   1_556  S
C1502      C1503   1.420       .  A
C1503      C1504   1.405       .  A
C1503      S1507   1.810       .  S
C1504      H1508   1.082       .  S
S1505      H1510   1.407       .  S
S1507      H1511   1.407       .  S
C1513      C1514   1.402       .  A
C1513      C1518   1.398       .  A
C1513      H1523   1.084       .  S
C1514      C1519   1.485       .  S
C1514      C1515   1.416       .  A
C1515      C1516   1.405       .  A
C1515      S1520   1.805       .  S
C1516      C1517   1.405       .  A
C1516      H1521   1.083       .  S
C1517      C1518   1.414       .  A
C1518      S1522   1.806       .  S
C1519      C1524   1.410       .  A
C1519      C1528   1.396       .  A
S1520      H1536   1.405       .  S
S1522      H1533   1.408       .  S
C1524      C1525   1.406       .  A
C1524      S1529   1.806       .  S
C1525      C1526   1.408       .  A
C1525      H1530   1.083       .  S
C1526      C1527   1.430       .  A
C1527      C1528   1.404       .  A
C1527      S1531   1.813       .  S
C1528      H1532   1.083       .  S
S1529      H1534   1.407       .  S
S1531      H1535   1.407       .  S
C1537      C1538   1.406       .  A
C1537      C1542   1.406       .  A
C1537      H1547   1.084       .  S
C1538      C1543   1.489       .  S
C1538      C1539   1.410       .  A
C1539      C1540   1.399       .  A
C1539      S1544   1.805       .  S
C1540      C1541   1.410       .  A
C1540      H1545   1.084       .  S
C1541      C1542   1.418       .  A
C1542      S1546   1.800       .  S
C1543      C1548   1.405       .  A
C1543      C1552   1.406       .  A
S1544      H1560   1.406       .  S
S1546      H1557   1.407       .  S
C1548      C1549   1.401       .  A
C1548      S1553   1.808       .  S
C1549      C1550   1.413       .  A
C1549      H1554   1.082       .  S
C1550      C1551   1.418       .  A
C1551      C1552   1.410       .  A
C1551      S1555   1.807       .  S
C1552      H1556   1.083       .  S
S1553      H1558   1.407       .  S
S1555      H1559   1.407       .  S
C1561      C1562   1.401       .  A
C1561      C1566   1.401       .  A
C1561      H1571   1.084       .  S
C1562      C1567   1.492       .  S
C1562      C1563   1.416       .  A
C1563      C1564   1.407       .  A
C1563      S1568   1.804       .  S
C1564      C1565   1.406       .  A
C1564      H1569   1.083       .  S
C1565      C1566   1.420       .  A
C1566      S1570   1.804       .  S
C1567      C1572   1.411       .  A
C1567      C1576   1.406       .  A
S1568      H1584   1.406   1_545  S
S1570      H1581   1.408       .  S
C1572      C1573   1.403       .  A
C1572      S1577   1.807       .  S
C1573      C1574   1.405       .  A
C1573      H1578   1.083       .  S
C1574      C1575   1.412       .  A
C1575      C1576   1.410       .  A
C1575      S1579   1.806   1_545  S
C1576      H1580   1.082       .  S
S1577      H1582   1.407       .  S
S1579      H1583   1.407       .  S
C1585      C1586   1.405       .  A
C1585      C1590   1.409       .  A
C1585      H1595   1.083       .  S
C1586      C1591   1.491       .  S
C1586      C1587   1.410       .  A
C1587      C1588   1.399       .  A
C1587      S1592   1.806       .  S
C1588      C1589   1.413       .  A
C1588      H1593   1.083       .  S
C1589      C1590   1.421       .  A
C1590      S1594   1.800   1_455  S
C1591      C1596   1.411       .  A
C1591      C1600   1.404       .  A
S1592      H1608   1.405       .  S
S1594      H1605   1.408   1_655  S
C1596      C1597   1.406       .  A
C1596      S1601   1.806       .  S
C1597      C1598   1.407       .  A
C1597      H1602   1.083       .  S
C1598      C1599   1.415       .  A
C1599      C1600   1.405       .  A
C1599      S1603   1.802       .  S
C1600      H1604   1.084       .  S
S1601      H1606   1.407       .  S
S1603      H1607   1.406       .  S
C1609      C1610   1.402       .  A
C1609      C1614   1.400       .  A
C1609      H1619   1.084       .  S
C1610      C1615   1.494       .  S
C1610      C1611   1.416       .  A
C1611      C1612   1.407       .  A
C1611      S1616   1.803       .  S
C1612      C1613   1.406       .  A
C1612      H1617   1.084   1_455  S
C1613      C1614   1.419       .  A
C1614      S1618   1.805       .  S
C1615      C1620   1.411       .  A
C1615      C1624   1.403       .  A
S1616      H1632   1.406       .  S
S1618      H1629   1.408       .  S
C1620      C1621   1.406       .  A
C1620      S1625   1.807       .  S
C1621      C1622   1.407       .  A
C1621      H1626   1.083       .  S
C1622      C1623   1.421       .  A
C1623      C1624   1.409       .  A
C1623      S1627   1.809       .  S
C1624      H1628   1.082       .  S
S1625      H1630   1.407       .  S
S1627      H1631   1.407       .  S
C1633      C1634   1.409       .  A
C1633      C1638   1.407       .  A
C1633      H1643   1.084       .  S
C1634      C1639   1.498       .  S
C1634      C1635   1.414       .  A
C1635      C1636   1.399       .  A
C1635      S1640   1.805       .  S
C1636      C1637   1.406       .  A
C1636      H1641   1.084       .  S
C1637      C1638   1.416       .  A
C1638      S1642   1.801       .  S
C1639      C1644   1.412       .  A
C1639      C1648   1.404       .  A
S1640      H1656   1.406       .  S
S1642      H1653   1.407       .  S
C1644      C1645   1.408       .  A
C1644      S1649   1.807       .  S
C1645      C1646   1.411       .  A
C1645      H1650   1.083       .  S
C1646      C1647   1.420       .  A
C1647      C1648   1.405       .  A
C1647      S1651   1.810       .  S
C1648      H1652   1.083       .  S
S1649      H1654   1.407       .  S
S1651      H1655   1.407       .  S
C1657      C1658   1.402       .  A
C1657      C1662   1.401       .  A
C1657      H1667   1.086       .  S
C1658      C1663   1.493       .  S
C1658      C1659   1.413       .  A
C1659      C1660   1.409       .  A
C1659      S1664   1.802       .  S
C1660      C1661   1.410       .  A
C1660      H1665   1.084       .  S
C1661      C1662   1.418       .  A
C1662      S1666   1.800       .  S
C1663      C1668   1.410       .  A
C1663      C1672   1.405       .  A
S1664      H1680   1.406       .  S
S1666      H1677   1.401       .  S
C1668      C1669   1.405       .  A
C1668      S1673   1.805       .  S
C1669      C1670   1.405       .  A
C1669      H1674   1.083       .  S
C1670      C1671   1.413       .  A
C1671      C1672   1.410       .  A
C1671      S1675   1.806       .  S
C1672      H1676   1.085       .  S
S1673      H1678   1.407       .  S
S1675      H1679   1.407       .  S
C1681      C1682   1.408       .  A
C1681      C1686   1.411       .  A
C1681      H1691   1.083       .  S
C1682      C1687   1.484       .  S
C1682      C1683   1.408       .  A
C1683      C1684   1.393       .  A
C1683      S1688   1.805       .  S
C1684      C1685   1.407       .  A
C1684      H1689   1.084       .  S
C1685      C1686   1.410       .  A
C1686      S1690   1.803       .  S
C1687      C1692   1.412       .  A
C1687      C1696   1.395       .  A
S1688      H1704   1.406       .  S
S1690      H1701   1.407       .  S
C1692      C1693   1.407       .  A
C1692      S1697   1.808       .  S
C1693      C1694   1.407       .  A
C1693      H1698   1.081       .  S
C1694      C1695   1.428       .  A
C1695      C1696   1.399       .  A
C1695      S1699   1.802       .  S
C1696      H1700   1.083       .  S
S1697      H1702   1.406       .  S
S1699      H1703   1.406       .  S
C1705      C1706   1.406       .  A
C1705      C1710   1.406       .  A
C1705      H1715   1.082       .  S
C1706      C1711   1.496       .  S
C1706      C1707   1.417       .  A
C1707      C1708   1.405       .  A
C1707      S1712   1.804       .  S
C1708      C1709   1.403       .  A
C1708      H1713   1.083       .  S
C1709      C1710   1.410       .  A
C1710      S1714   1.806       .  S
C1711      C1716   1.411       .  A
C1711      C1720   1.402       .  A
S1712      H1728   1.406       .  S
S1714      H1725   1.407       .  S
C1716      C1717   1.407       .  A
C1716      S1721   1.808       .  S
C1717      C1718   1.410       .  A
C1717      H1722   1.082       .  S
C1718      C1719   1.425       .  A
C1719      C1720   1.408       .  A
C1719      S1723   1.810       .  S
C1720      H1724   1.083       .  S
S1721      H1726   1.407       .  S
S1723      H1727   1.406       .  S
C1729      C1730   1.400       .  A
C1729      C1734   1.400       .  A
C1729      H1739   1.084       .  S
C1730      C1735   1.483       .  S
C1730      C1731   1.415       .  A
C1731      C1732   1.402       .  A
C1731      S1736   1.805       .  S
C1732      C1733   1.404       .  A
C1732      H1737   1.084       .  S
C1733      C1734   1.417       .  A
C1734      S1738   1.802       .  S
C1735      C1740   1.407       .  A
C1735      C1744   1.405       .  A
S1736      H1752   1.405       .  S
S1738      H1749   1.405       .  S
C1740      C1741   1.400       .  A
C1740      S1745   1.808       .  S
C1741      C1742   1.407       .  A
C1741      H1746   1.083       .  S
C1742      C1743   1.413       .  A
C1743      C1744   1.409       .  A
C1743      S1747   1.806       .  S
C1744      H1748   1.082       .  S
S1745      H1750   1.407       .  S
S1747      H1751   1.407       .  S
C1753      C1754   1.403       .  A
C1753      C1758   1.401       .  A
C1753      H1763   1.084       .  S
C1754      C1759   1.493       .  S
C1754      C1755   1.415       .  A
C1755      C1756   1.405       .  A
C1755      S1760   1.805       .  S
C1756      C1757   1.408       .  A
C1756      H1761   1.083       .  S
C1757      C1758   1.417       .  A
C1758      S1762   1.804       .  S
C1759      C1764   1.414       .  A
C1759      C1768   1.403       .  A
S1760      H1776   1.406       .  S
S1762      H1773   1.407       .  S
C1764      C1765   1.409       .  A
C1764      S1769   1.807       .  S
C1765      C1766   1.405       .  A
C1765      H1770   1.083       .  S
C1766      C1767   1.417       .  A
C1767      C1768   1.401       .  A
C1767      S1771   1.806       .  S
C1768      H1772   1.084       .  S
S1769      H1774   1.407       .  S
S1771      H1775   1.402       .  S
C1777      C1778   1.400       .  A
C1777      C1782   1.396       .  A
C1777      H1787   1.085       .  S
C1778      C1783   1.498       .  S
C1778      C1779   1.419       .  A
C1779      C1780   1.411       .  A
C1779      S1784   1.803       .  S
C1780      C1781   1.407       .  A
C1780      H1785   1.084       .  S
C1781      C1782   1.421       .  A
C1782      S1786   1.805       .  S
C1783      C1788   1.415   1_554  A
C1783      C1792   1.403       .  A
S1784      H1800   1.406       .  S
S1786      H1797   1.408       .  S
C1788      C1789   1.407       .  A
C1788      S1793   1.808       .  S
C1789      C1790   1.405       .  A
C1789      H1794   1.083       .  S
C1790      C1791   1.420   1_556  A
C1791      C1792   1.407       .  A
C1791      S1795   1.809       .  S
C1792      H1796   1.083       .  S
S1793      H1798   1.406       .  S
S1795      H1799   1.406       .  S
C1801      C1802   1.405       .  A
C1801      C1806   1.404       .  A
C1801      H1811   1.084       .  S
C1802      C1807   1.492       .  S
C1802      C1803   1.416       .  A
C1803      C1804   1.402       .  A
C1803      S1808   1.804       .  S
C1804      C1805   1.403       .  A
C1804      H1809   1.085       .  S
C1805      C1806   1.416       .  A
C1806      S1810   1.804       .  S
C1807      C1812   1.415       .  A
C1807      C1816   1.400       .  A
S1808      H1824   1.406       .  S
S1810      H1821   1.407       .  S
C1812      C1813   1.412       .  A
C1812      S1817   1.805       .  S
C1813      C1814   1.406       .  A
C1813      H1818   1.082       .  S
C1814      C1815   1.418       .  A
C1815      C1816   1.396       .  A
C1815      S1819   1.805   1_655  S
C1816      H1820   1.084       .  S
S1817      H1822   1.407       .  S
S1819      H1823   1.407       .  S
C1825      C1826   1.400       .  A
C1825      C1830   1.404       .  A
C1825      H1835   1.084       .  S
C1826      C1831   1.488       .  S
C1826      C1827   1.414       .  A
C1827      C1828   1.402       .  A
C1827      S1832   1.804       .  S
C1828      C1829   1.406       .  A
C1828      H1833   1.084       .  S
C1829      C1830   1.424       .  A
C1830      S1834   1.811       .  S
C1831      C1836   1.413       .  A
C1831      C1840   1.404       .  A
S1832      H1848   1.406       .  S
S1834      H1845   1.407       .  S
C1836      C1837   1.405       .  A
C1836      S1841   1.807       .  S
C1837      C1838   1.404       .  A
C1837      H1842   1.083       .  S
C1838      C1839   1.413       .  A
C1839      C1840   1.402       .  A
C1839      S1843   1.803       .  S
C1840      H1844   1.084       .  S
S1841      H1846   1.407       .  S
S1843      H1847   1.405       .  S
C1849      C1850   1.403       .  A
C1849      C1854   1.397       .  A
C1849      H1859   1.085       .  S
C1850      C1855   1.494       .  S
C1850      C1851   1.418       .  A
C1851      C1852   1.406       .  A
C1851      S1856   1.804       .  S
C1852      C1853   1.405       .  A
C1852      H1857   1.083       .  S
C1853      C1854   1.416       .  A
C1854      S1858   1.806       .  S
C1855      C1860   1.416       .  A
C1855      C1864   1.404       .  A
S1856      H1872   1.406       .  S
S1858      H1869   1.408       .  S
C1860      C1861   1.408       .  A
C1860      S1865   1.808       .  S
C1861      C1862   1.403       .  A
C1861      H1866   1.080       .  S
C1862      C1863   1.409       .  A
C1863      C1864   1.402       .  A
C1863      S1867   1.801       .  S
C1864      H1868   1.083       .  S
S1865      H1870   1.407       .  S
S1867      H1871   1.407       .  S
C1873      C1874   1.409       .  A
C1873      C1878   1.408       .  A
C1873      H1883   1.083       .  S
C1874      C1879   1.507       .  S
C1874      C1875   1.418       .  A
C1875      C1876   1.406       .  A
C1875      S1880   1.804       .  S
C1876      C1877   1.406       .  A
C1876      H1881   1.084       .  S
C1877      C1878   1.415       .  A
C1878      S1882   1.803       .  S
C1879      C1884   1.416       .  A
C1879      C1888   1.407       .  A
S1880      H1896   1.406       .  S
S1882      H1893   1.406       .  S
C1884      C1885   1.412   1_554  A
C1884      S1889   1.806       .  S
C1885      C1886   1.409   1_556  A
C1885      H1890   1.081       .  S
C1886      C1887   1.418       .  A
C1887      C1888   1.405       .  A
C1887      S1891   1.804       .  S
C1888      H1892   1.083       .  S
S1889      H1894   1.406   1_554  S
S1891      H1895   1.408       .  S
C1897      C1898   1.408       .  A
C1897      C1902   1.413       .  A
C1897      H1907   1.084       .  S
C1898      C1903   1.495       .  S
C1898      C1899   1.410       .  A
C1899      C1900   1.398       .  A
C1899      S1904   1.805       .  S
C1900      C1901   1.411       .  A
C1900      H1905   1.083       .  S
C1901      C1902   1.419       .  A
C1902      S1906   1.800       .  S
C1903      C1908   1.410       .  A
C1903      C1912   1.404       .  A
S1904      H1920   1.405       .  S
S1906      H1917   1.408       .  S
C1908      C1909   1.407       .  A
C1908      S1913   1.807       .  S
C1909      C1910   1.410       .  A
C1909      H1914   1.082       .  S
C1910      C1911   1.419       .  A
C1911      C1912   1.412       .  A
C1911      S1915   1.807       .  S
C1912      H1916   1.082       .  S
S1913      H1918   1.407       .  S
S1915      H1919   1.407       .  S
C1921      C1922   1.407       .  A
C1921      C1926   1.407       .  A
C1921      H1931   1.083       .  S
C1922      C1927   1.498       .  S
C1922      C1923   1.415       .  A
C1923      C1924   1.401       .  A
C1923      S1928   1.804       .  S
C1924      C1925   1.405       .  A
C1924      H1929   1.084       .  S
C1925      C1926   1.417       .  A
C1926      S1930   1.802       .  S
C1927      C1932   1.413       .  A
C1927      C1936   1.403       .  A
S1928      H1944   1.406       .  S
S1930      H1941   1.407       .  S
C1932      C1933   1.410       .  A
C1932      S1937   1.807       .  S
C1933      C1934   1.410       .  A
C1933      H1938   1.083       .  S
C1934      C1935   1.421       .  A
C1935      C1936   1.404       .  A
C1935      S1939   1.811       .  S
C1936      H1940   1.082       .  S
S1937      H1942   1.407       .  S
S1939      H1943   1.406       .  S
C1945      C1946   1.402       .  A
C1945      C1950   1.400       .  A
C1945      H1955   1.084       .  S
C1946      C1951   1.494       .  S
C1946      C1947   1.417       .  A
C1947      C1948   1.408       .  A
C1947      S1952   1.803       .  S
C1948      C1949   1.406       .  A
C1948      H1953   1.084       .  S
C1949      C1950   1.417       .  A
C1950      S1954   1.804       .  S
C1951      C1956   1.413       .  A
C1951      C1960   1.406       .  A
S1952      H1968   1.406       .  S
S1954      H1965   1.404       .  S
C1956      C1957   1.406       .  A
C1956      S1961   1.807       .  S
C1957      C1958   1.403       .  A
C1957      H1962   1.083       .  S
C1958      C1959   1.414       .  A
C1959      C1960   1.405       .  A
C1959      S1963   1.804       .  S
C1960      H1964   1.084       .  S
S1961      H1966   1.407       .  S
S1963      H1967   1.407       .  S
C1969      C1970   1.401       .  A
C1969      C1974   1.401       .  A
C1969      H1979   1.084       .  S
C1970      C1975   1.486       .  S
C1970      C1971   1.414       .  A
C1971      C1972   1.405       .  A
C1971      S1976   1.804       .  S
C1972      C1973   1.406       .  A
C1972      H1977   1.084       .  S
C1973      C1974   1.418       .  A
C1974      S1978   1.803       .  S
C1975      C1980   1.410       .  A
C1975      C1984   1.402       .  A
S1976      H1992   1.405       .  S
S1978      H1989   1.407       .  S
C1980      C1981   1.407       .  A
C1980      S1985   1.806       .  S
C1981      C1982   1.406       .  A
C1981      H1986   1.082       .  S
C1982      C1983   1.417       .  A
C1983      C1984   1.402       .  A
C1983      S1987   1.804       .  S
C1984      H1988   1.083       .  S
S1985      H1990   1.407       .  S
S1987      H1991   1.406       .  S
C1993      C1994   1.403       .  A
C1993      C1998   1.408       .  A
C1993      H2003   1.083       .  S
C1994      C1999   1.497       .  S
C1994      C1995   1.415       .  A
C1995      C1996   1.406   1_545  A
C1995      S2000   1.805       .  S
C1996      C1997   1.410       .  A
C1996      H2001   1.084       .  S
C1997      C1998   1.420   1_565  A
C1998      S2002   1.808       .  S
C1999      C2004   1.415       .  A
C1999      C2008   1.404       .  A
S2000      H2016   1.405       .  S
S2002      H2013   1.407       .  S
C2004      C2005   1.411       .  A
C2004      S2009   1.806   1_545  S
C2005      C2006   1.406       .  A
C2005      H2010   1.083       .  S
C2006      C2007   1.416       .  A
C2007      C2008   1.403       .  A
C2007      S2011   1.802       .  S
C2008      H2012   1.083       .  S
S2009      H2014   1.407       .  S
S2011      H2015   1.404       .  S
C2017      C2018   1.403       .  A
C2017      C2022   1.408       .  A
C2017      H2027   1.083       .  S
C2018      C2023   1.494       .  S
C2018      C2019   1.412       .  A
C2019      C2020   1.412   1_545  A
C2019      S2024   1.805   1_545  S
C2020      C2021   1.405       .  A
C2020      H2025   1.082       .  S
C2021      C2022   1.413   1_565  A
C2022      S2026   1.807       .  S
C2023      C2028   1.410       .  A
C2023      C2032   1.402       .  A
S2024      H2040   1.407       .  S
S2026      H2037   1.407       .  S
C2028      C2029   1.409       .  A
C2028      S2033   1.805       .  S
C2029      C2030   1.409   1_556  A
C2029      H2034   1.083   1_556  S
C2030      C2031   1.420   1_554  A
C2031      C2032   1.406       .  A
C2031      S2035   1.802   1_556  S
C2032      H2036   1.084       .  S
S2033      H2038   1.407       .  S
S2035      H2039   1.407       .  S
C2041      C2042   1.402       .  A
C2041      C2046   1.404   1_545  A
C2041      H2051   1.083       .  S
C2042      C2047   1.492       .  S
C2042      C2043   1.415       .  A
C2043      C2044   1.404   1_545  A
C2043      S2048   1.804       .  S
C2044      C2045   1.407       .  A
C2044      H2049   1.084       .  S
C2045      C2046   1.420       .  A
C2046      S2050   1.802       .  S
C2047      C2052   1.414       .  A
C2047      C2056   1.400       .  A
S2048      H2064   1.406       .  S
S2050      H2061   1.408       .  S
C2052      C2053   1.413       .  A
C2052      S2057   1.805   1_545  S
C2053      C2054   1.406       .  A
C2053      H2058   1.083       .  S
C2054      C2055   1.418       .  A
C2055      C2056   1.398       .  A
C2055      S2059   1.804       .  S
C2056      H2060   1.084       .  S
S2057      H2062   1.407   1_565  S
S2059      H2063   1.407       .  S
C2065      C2066   1.405       .  A
C2065      C2070   1.406       .  A
C2065      H2075   1.084       .  S
C2066      C2071   1.489       .  S
C2066      C2067   1.411       .  A
C2067      C2068   1.401       .  A
C2067      S2072   1.804       .  S
C2068      C2069   1.408       .  A
C2068      H2073   1.083       .  S
C2069      C2070   1.416       .  A
C2070      S2074   1.802       .  S
C2071      C2076   1.408       .  A
C2071      C2080   1.403       .  A
S2072      H2088   1.405       .  S
S2074      H2085   1.407       .  S
C2076      C2077   1.406       .  A
C2076      S2081   1.807       .  S
C2077      C2078   1.409       .  A
C2077      H2082   1.082       .  S
C2078      C2079   1.416       .  A
C2079      C2080   1.409       .  A
C2079      S2083   1.806       .  S
C2080      H2084   1.082       .  S
S2081      H2086   1.407       .  S
S2083      H2087   1.406       .  S
C2089      C2090   1.406       .  A
C2089      C2094   1.406       .  A
C2089      H2099   1.083       .  S
C2090      C2095   1.496       .  S
C2090      C2091   1.415       .  A
C2091      C2092   1.406       .  A
C2091      S2096   1.803       .  S
C2092      C2093   1.405       .  A
C2092      H2097   1.083       .  S
C2093      C2094   1.414       .  A
C2094      S2098   1.803       .  S
C2095      C2100   1.413       .  A
C2095      C2104   1.403       .  A
S2096      H2112   1.405       .  S
S2098      H2109   1.406       .  S
C2100      C2101   1.411       .  A
C2100      S2105   1.805       .  S
C2101      C2102   1.408       .  A
C2101      H2106   1.083   1_556  S
C2102      C2103   1.418       .  A
C2103      C2104   1.405       .  A
C2103      S2107   1.805       .  S
C2104      H2108   1.084       .  S
S2105      H2110   1.407   1_556  S
S2107      H2111   1.408       .  S
C2113      C2114   1.408       .  A
C2113      C2118   1.410       .  A
C2113      H2123   1.083       .  S
C2114      C2119   1.498       .  S
C2114      C2115   1.414       .  A
C2115      C2116   1.402       .  A
C2115      S2120   1.804       .  S
C2116      C2117   1.407       .  A
C2116      H2121   1.083       .  S
C2117      C2118   1.416       .  A
C2118      S2122   1.800       .  S
C2119      C2124   1.413       .  A
C2119      C2128   1.406       .  A
S2120      H2136   1.406       .  S
S2122      H2133   1.406       .  S
C2124      C2125   1.412       .  A
C2124      S2129   1.805       .  S
C2125      C2126   1.407       .  A
C2125      H2130   1.083       .  S
C2126      C2127   1.415       .  A
C2127      C2128   1.403       .  A
C2127      S2131   1.804       .  S
C2128      H2132   1.083       .  S
S2129      H2134   1.407       .  S
S2131      H2135   1.407       .  S
C2137      C2138   1.401       .  A
C2137      C2142   1.399       .  A
C2137      H2147   1.084       .  S
C2138      C2143   1.490       .  S
C2138      C2139   1.416       .  A
C2139      C2140   1.406       .  A
C2139      S2144   1.805       .  S
C2140      C2141   1.407       .  A
C2140      H2145   1.084       .  S
C2141      C2142   1.418       .  A
C2142      S2146   1.800       .  S
C2143      C2148   1.412       .  A
C2143      C2152   1.404       .  A
S2144      H2160   1.405       .  S
S2146      H2157   1.405       .  S
C2148      C2149   1.408       .  A
C2148      S2153   1.806       .  S
C2149      C2150   1.405       .  A
C2149      H2154   1.082   1_565  S
C2150      C2151   1.415       .  A
C2151      C2152   1.400       .  A
C2151      S2155   1.804       .  S
C2152      H2156   1.083       .  S
S2153      H2158   1.407       .  S
S2155      H2159   1.405       .  S
C2161      C2162   1.406       .  A
C2161      C2166   1.408       .  A
C2161      H2171   1.084       .  S
C2162      C2167   1.497       .  S
C2162      C2163   1.413       .  A
C2163      C2164   1.404       .  A
C2163      S2168   1.804       .  S
C2164      C2165   1.410       .  A
C2164      H2169   1.084       .  S
C2165      C2166   1.418       .  A
C2166      S2170   1.801       .  S
C2167      C2172   1.411       .  A
C2167      C2176   1.405       .  A
S2168      H2184   1.406       .  S
S2170      H2181   1.408       .  S
C2172      C2173   1.408       .  A
C2172      S2177   1.806       .  S
C2173      C2174   1.407   1_455  A
C2173      H2178   1.083       .  S
C2174      C2175   1.416       .  A
C2175      C2176   1.410   1_655  A
C2175      S2179   1.808       .  S
C2176      H2180   1.084   1_455  S
S2177      H2182   1.407       .  S
S2179      H2183   1.407       .  S
C2185      C2186   1.406       .  A
C2185      C2190   1.404       .  A
C2185      H2195   1.082       .  S
C2186      C2191   1.499       .  S
C2186      C2187   1.418       .  A
C2187      C2188   1.407       .  A
C2187      S2192   1.804       .  S
C2188      C2189   1.404       .  A
C2188      H2193   1.083       .  S
C2189      C2190   1.414       .  A
C2190      S2194   1.805       .  S
C2191      C2196   1.414       .  A
C2191      C2200   1.402       .  A
S2192      H2208   1.406       .  S
S2194      H2205   1.407       .  S
C2196      C2197   1.410       .  A
C2196      S2201   1.807       .  S
C2197      C2198   1.407       .  A
C2197      H2202   1.082       .  S
C2198      C2199   1.422       .  A
C2199      C2200   1.408       .  A
C2199      S2203   1.807       .  S
C2200      H2204   1.082       .  S
S2201      H2206   1.406       .  S
S2203      H2207   1.407       .  S
C2209      C2210   1.397       .  A
C2209      C2214   1.404       .  A
C2209      H2219   1.083       .  S
C2210      C2215   1.488       .  S
C2210      C2211   1.417       .  A
C2211      C2212   1.407       .  A
C2211      S2216   1.806       .  S
C2212      C2213   1.406       .  A
C2212      H2217   1.084       .  S
C2213      C2214   1.423       .  A
C2214      S2218   1.807       .  S
C2215      C2220   1.409       .  A
C2215      C2224   1.406       .  A
S2216      H2232   1.403       .  S
S2218      H2229   1.406       .  S
C2220      C2221   1.404       .  A
C2220      S2225   1.806       .  S
C2221      C2222   1.405       .  A
C2221      H2226   1.083       .  S
C2222      C2223   1.410       .  A
C2223      C2224   1.409       .  A
C2223      S2227   1.806       .  S
C2224      H2228   1.082       .  S
S2225      H2230   1.407       .  S
S2227      H2231   1.407       .  S
C2233      C2234   1.404       .  A
C2233      C2238   1.403       .  A
C2233      H2243   1.084       .  S
C2234      C2239   1.488       .  S
C2234      C2235   1.414       .  A
C2235      C2236   1.405       .  A
C2235      S2240   1.806       .  S
C2236      C2237   1.406       .  A
C2236      H2241   1.084       .  S
C2237      C2238   1.415       .  A
C2238      S2242   1.803       .  S
C2239      C2244   1.409       .  A
C2239      C2248   1.400       .  A
S2240      H2256   1.402       .  S
S2242      H2253   1.407       .  S
C2244      C2245   1.407       .  A
C2244      S2249   1.804       .  S
C2245      C2246   1.408       .  A
C2245      H2250   1.082   1_455  S
C2246      C2247   1.421       .  A
C2247      C2248   1.403       .  A
C2247      S2251   1.804       .  S
C2248      H2252   1.084       .  S
S2249      H2254   1.407       .  S
S2251      H2255   1.405       .  S
