geometry optimzed in LAMMPS
_audit_creation_date              2020-11-30 
_audit_creation_method            'lammps2cif' 
_symmetry_space_group_name_H-M    'P1' 
_symmetry_Int_Tables_number       1 
_symmetry_cell_setting            triclinic 
loop_ 
_symmetry_equiv_pos_as_xyz 
  x,y,z 
_cell_length_a                    78.99431567 
_cell_length_b                    79.02716167850875 
_cell_length_c                    43.32685880497813 
_cell_angle_alpha                 89.96714099359201 
_cell_angle_beta                  90.14056301373472 
_cell_angle_gamma                 89.93812064369268 
loop_ 
_atom_site_label 
_atom_site_type_symbol 
_atom_site_fract_x 
_atom_site_fract_y 
_atom_site_fract_z 
_atom_site_charge 
C1          C  0.87646057  0.73641201  0.48248102     0.86000
C2          C  0.86348326  0.75090730  0.48217879    -0.54200
C3          C  0.86425990  0.76116635  0.00738663     0.08900
C4          C  0.87792034  0.75599092  0.03115426     0.19900
C5          C  0.89353975  0.74519134  0.48695152    -0.54900
C6          C  0.89450031  0.75554352  0.01219132     0.09000
C7          C  0.87310515  0.72721053  0.51296567    -0.54500
C8          C  0.87404462  0.73723427  0.03854560     0.09600
H9          H  0.85417870  0.75312291  0.46424881     0.14100
H10         H  0.87836464  0.76421886  0.05188498    -0.00100
H11         H  0.90371663  0.74383980  0.47034176     0.14400
H12         H  0.87078191  0.71368013  0.01429707     0.14200
O13         O  0.89291677  0.65240711  0.22865592    -0.74900
O14         O  0.89433275  0.61598137  0.28778787    -0.74900
O15         O  0.89396081  0.61811083  0.22526511    -0.75000
O16         O  0.89345763  0.65013011  0.29127598    -0.75000
O17         O  0.86526559  0.64911878  0.29209428    -0.75000
O18         O  0.86573714  0.61770563  0.22497840    -0.74900
O19         O  0.86615324  0.61496808  0.28747354    -0.74900
O20         O  0.86473394  0.65181646  0.22984336    -0.75000
Ni21       Ni  0.89467462  0.63419178  0.25819474     1.25400
Ni22       Ni  0.86448098  0.63336767  0.25860539     1.25400
C23         C  0.87853754  0.65816017  0.21954216     0.87300
C24         C  0.88043552  0.60950481  0.29751286     0.87200
C25         C  0.87995356  0.61266208  0.21416698     0.87200
C26         C  0.87928959  0.65479267  0.30278547     0.87400
C27         C  0.86748168  0.26158928  0.03979395     0.86000
C28         C  0.85446880  0.24715056  0.03969218    -0.54200
C29         C  0.85508280  0.23711500  0.01407241     0.08900
C30         C  0.86857775  0.24262444  0.49034960     0.19900
C31         C  0.88445965  0.25254319  0.03502914    -0.54900
C32         C  0.88520718  0.24262034  0.00921173     0.09000
C33         C  0.86427684  0.27120461  0.00979906    -0.54500
C34         C  0.86487861  0.26152453  0.48377630     0.09600
H35         H  0.84586487  0.24436952  0.05840111     0.14100
H36         H  0.86895791  0.23463736  0.46930313    -0.00100
H37         H  0.89475988  0.25344862  0.05158453     0.14400
H38         H  0.86238755  0.28482361  0.00923934     0.14200
O39         O  0.88658690  0.34479437  0.29259307    -0.74900
O40         O  0.88957859  0.38116258  0.23356801    -0.74900
O41         O  0.88955509  0.37886239  0.29619534    -0.75000
O42         O  0.88684358  0.34709798  0.23015278    -0.75000
O43         O  0.85874789  0.34975861  0.22945975    -0.75000
O44         O  0.86141311  0.38097336  0.29658431    -0.74900
O45         O  0.86149469  0.38371538  0.23414583    -0.74900
O46         O  0.85848066  0.34708544  0.29175294    -0.75000
Ni47       Ni  0.88915166  0.36290719  0.26313364     1.25400
Ni48       Ni  0.85904712  0.36547710  0.26298701     1.25400
C49         C  0.87195940  0.33995357  0.30193339     0.87300
C50         C  0.87597230  0.38835751  0.22391763     0.87200
C51         C  0.87593172  0.38499389  0.30757526     0.87200
C52         C  0.87238831  0.34327130  0.21874721     0.87400
O53         O  0.86658574  0.51582640  0.47831365    -0.74900
O54         O  0.86573073  0.48187893  0.04177388    -0.74900
O55         O  0.86614661  0.51618182  0.04083209    -0.75000
O56         O  0.86619198  0.48157960  0.47934798    -0.75000
O57         O  0.89438515  0.48041180  0.48145225    -0.75000
O58         O  0.89436089  0.51647837  0.04023804    -0.74900
O59         O  0.89391933  0.48223115  0.04383409    -0.74900
O60         O  0.89477091  0.51469315  0.47764400    -0.75000
Ni61       Ni  0.86516412  0.49888342  0.01003778     1.25400
Ni62       Ni  0.89537097  0.49845411  0.01081701     1.25400
C63         C  0.88079429  0.52072690  0.46720446     0.87300
C64         C  0.87967583  0.47654321  0.05348719     0.87200
C65         C  0.88025897  0.52216348  0.05048493     0.87200
C66         C  0.88026046  0.47513189  0.47059529     0.87400
C67         C  0.74825155  0.86010607  0.01835358     0.86000
C68         C  0.76069285  0.84531689  0.01446265    -0.54200
C69         C  0.77122581  0.84681081  0.98971853     0.08900
C70         C  0.76814649  0.86299372  0.47038266     0.19900
C71         C  0.75953266  0.87584512  0.01892324    -0.54900
C72         C  0.76990035  0.87767818  0.99385810     0.09000
C73         C  0.73884248  0.86102476  0.98756371    -0.54500
C74         C  0.74904166  0.86268147  0.46241330     0.09600
H75         H  0.76197327  0.83480740  0.03027888     0.14100
H76         H  0.77637043  0.86405817  0.44977053    -0.00100
H77         H  0.75942188  0.88455662  0.03826564     0.16000
H78         H  0.72511768  0.86070426  0.98581968     0.14200
O79         O  0.62760081  0.87512991  0.21193176    -0.74900
O80         O  0.66355905  0.87625957  0.27124996    -0.74900
O81         O  0.66169712  0.87547742  0.20895334    -0.75000
O82         O  0.62932480  0.87585743  0.27422256    -0.75000
O83         O  0.62998881  0.84767247  0.27605682    -0.75000
O84         O  0.66166201  0.84727122  0.20953749    -0.74900
O85         O  0.66426505  0.84808327  0.27202955    -0.74900
O86         O  0.62744450  0.84694862  0.21358619    -0.75000
Ni87       Ni  0.64553515  0.87666281  0.24159027     1.25400
Ni88       Ni  0.64586316  0.84647208  0.24286923     1.25400
C89         C  0.62158866  0.86092395  0.20284024     0.87300
C90         C  0.66994820  0.86241027  0.28137796     0.87200
C91         C  0.66686573  0.86130303  0.19820777     0.87200
C92         C  0.62428999  0.86185158  0.28588963     0.87400
C93         C  0.27165818  0.86884906  0.45794026     0.86000
C94         C  0.25880002  0.85436465  0.46120231    -0.54200
C95         C  0.24956867  0.85486146  0.98779108     0.08900
C96         C  0.25428632  0.86968350  0.00934189     0.19900
C97         C  0.26114158  0.88493533  0.46211230    -0.54900
C98         C  0.25189375  0.88540354  0.98866649     0.09000
C99         C  0.28252163  0.86749953  0.48714005    -0.54500
C100        C  0.27362465  0.86794897  0.01410778     0.09600
H101        H  0.25693714  0.84433919  0.44458621     0.14100
H102        H  0.24681364  0.87006123  0.03100770    -0.00100
H103        H  0.26045198  0.89482248  0.44470784     0.14400
H104        H  0.29622737  0.86639271  0.98648075     0.14200
O105        O  0.35862476  0.88132134  0.20648450    -0.74900
O106        O  0.39364141  0.88069187  0.26842164    -0.74900
O107        O  0.39298228  0.88040350  0.20582565    -0.75000
O108        O  0.35943437  0.88181249  0.26886123    -0.75000
O109        O  0.35890676  0.85362025  0.27008383    -0.75000
O110        O  0.39190306  0.85220911  0.20570072    -0.74900
O111        O  0.39319011  0.85249978  0.26827776    -0.74900
O112        O  0.35771197  0.85315703  0.20778282    -0.75000
Ni113      Ni  0.37621825  0.88206028  0.23735527     1.25400
Ni114      Ni  0.37541566  0.85187131  0.23799568     1.25400
C115        C  0.35228076  0.86728509  0.19709254     0.87300
C116        C  0.39917203  0.86646624  0.27862456     0.87200
C117        C  0.39789034  0.86611685  0.19517643     0.87200
C118        C  0.35361400  0.86797632  0.27987714     0.87400
O119        O  0.49373646  0.84991338  0.45789492    -0.74900
O120        O  0.52724114  0.84888005  0.02210189    -0.74900
O121        O  0.49302512  0.84968468  0.02036130    -0.75000
O122        O  0.52797684  0.84920643  0.45955707    -0.75000
O123        O  0.52910135  0.87738295  0.46098742    -0.75000
O124        O  0.49309670  0.87789342  0.01967305    -0.74900
O125        O  0.52728376  0.87706623  0.02353343    -0.74900
O126        O  0.49486798  0.87808441  0.45721051    -0.75000
Ni127      Ni  0.51048357  0.84842355  0.98995400     1.25400
Ni128      Ni  0.51111769  0.87861638  0.99035684     1.25400
C129        C  0.48882465  0.86413962  0.44679348     0.87300
C130        C  0.53263242  0.86277833  0.03374919     0.87200
C131        C  0.48723048  0.86388250  0.02992707     0.87200
C132        C  0.53434173  0.86321507  0.45030500     0.87400
C133        C  0.74574309  0.12953224  0.47855464     0.86000
C134        C  0.75777586  0.14464705  0.48199423    -0.54200
C135        C  0.76805713  0.14409820  0.00741938     0.08900
C136        C  0.76536352  0.12801057  0.02734611     0.19900
C137        C  0.75753576  0.11418830  0.47906479    -0.54900
C138        C  0.76777051  0.11304784  0.00455050     0.09000
C139        C  0.73615216  0.12874061  0.50910805    -0.54500
C140        C  0.74619676  0.12783834  0.03466601     0.09600
H141        H  0.75901033  0.15458364  0.46507741     0.14100
H142        H  0.77341544  0.12734244  0.04831820    -0.00100
H143        H  0.75785595  0.10517855  0.46018276     0.14400
H144        H  0.72241315  0.12861668  0.01041309     0.14200
O145        O  0.66046574  0.11229191  0.22481412    -0.74900
O146        O  0.62458881  0.11229772  0.28462130    -0.74900
O147        O  0.62604533  0.11219139  0.22179508    -0.75000
O148        O  0.65873399  0.11246706  0.28734374    -0.75000
O149        O  0.65810627  0.14066472  0.28759075    -0.75000
O150        O  0.62645083  0.14038536  0.22080808    -0.74900
O151        O  0.62396370  0.14048410  0.28329883    -0.74900
O152        O  0.66065322  0.14047412  0.22503540    -0.75000
Ni153      Ni  0.64245492  0.11130409  0.25458580     1.25400
Ni154      Ni  0.64229341  0.14149292  0.25414865     1.25400
C155        C  0.66658244  0.12636233  0.21515471     0.87300
C156        C  0.61845533  0.12640277  0.29405962     0.87200
C157        C  0.62091781  0.12627713  0.21037604     0.87200
C158        C  0.66357524  0.12664503  0.29863181     0.87400
C159        C  0.27235608  0.13977086  0.02837743     0.86000
C160        C  0.25863745  0.15357246  0.02885746    -0.54200
C161        C  0.24735325  0.15274568  0.00493179     0.08900
C162        C  0.25082615  0.13795172  0.48245399     0.19900
C163        C  0.26224550  0.12324051  0.02731867    -0.54900
C164        C  0.25088818  0.12222606  0.00359263     0.09000
C165        C  0.28051646  0.14134988  0.99666259    -0.54500
C166        C  0.26946188  0.14042094  0.47253014     0.09600
H167        H  0.25699775  0.16261355  0.04730684     0.14100
H168        H  0.24175251  0.13719587  0.46289477    -0.00100
H169        H  0.26357406  0.11337423  0.04463514     0.14400
H170        H  0.29407538  0.14290257  0.99353790     0.14200
O171        O  0.38999071  0.11742598  0.22737556    -0.74900
O172        O  0.35248124  0.11962662  0.28361729    -0.74900
O173        O  0.35612701  0.11963427  0.22131251    -0.75000
O174        O  0.38662532  0.11731699  0.28980154    -0.75000
O175        O  0.38776727  0.14550224  0.29126008    -0.75000
O176        O  0.35861260  0.14773072  0.22093887    -0.74900
O177        O  0.35391318  0.14777994  0.28279038    -0.74900
O178        O  0.39233841  0.14550965  0.22908883    -0.75000
Ni179      Ni  0.37124062  0.11748744  0.25559257     1.25400
Ni180      Ni  0.37322559  0.14762229  0.25609416     1.25400
C181        C  0.39718692  0.13114456  0.21857022     0.87300
C182        C  0.34690131  0.13411872  0.29226686     0.87200
C183        C  0.35267414  0.13405710  0.20936857     0.87200
C184        C  0.39215140  0.13102656  0.30192788     0.87400
O185        O  0.49040629  0.14324363  0.03713424    -0.74900
O186        O  0.52367653  0.14254090  0.47250565    -0.74900
O187        O  0.48927376  0.14301976  0.47467381    -0.75000
O188        O  0.52473260  0.14280192  0.03515306    -0.75000
O189        O  0.52480878  0.11460053  0.03456543    -0.75000
O190        O  0.48853832  0.11484062  0.47584052    -0.74900
O191        O  0.52287096  0.11436918  0.47214892    -0.74900
O192        O  0.49056571  0.11505673  0.03825038    -0.75000
Ni193      Ni  0.50704132  0.14390769  0.00482045     1.25400
Ni194      Ni  0.50668403  0.11372492  0.00518942     1.25400
C195        C  0.48506267  0.12924888  0.04850492     0.87300
C196        C  0.52878919  0.12832913  0.46162774     0.87200
C197        C  0.48287882  0.12897501  0.46559923     0.87200
C198        C  0.53066758  0.12864303  0.04476507     0.87400
C199        C  0.15256133  0.73638027  0.04031982     0.86000
C200        C  0.16724644  0.74912865  0.03786135    -0.54200
C201        C  0.16627454  0.75957799  0.01265562     0.08900
C202        C  0.15067659  0.75615116  0.49196546     0.19900
C203        C  0.13667933  0.74751172  0.03932814    -0.54900
C204        C  0.13566967  0.75792756  0.01429692     0.09000
C205        C  0.15274936  0.72696143  0.00954078    -0.54500
C206        C  0.15176524  0.73713622  0.48420540     0.09600
H207        H  0.17699647  0.75070681  0.05515057     0.14100
H208        H  0.14980602  0.76440486  0.47128661    -0.00100
H209        H  0.12723048  0.74749958  0.05751638     0.14400
H210        H  0.15350219  0.71325667  0.00794834     0.14200
O211        O  0.12681292  0.61790853  0.23582724    -0.74900
O212        O  0.12906225  0.65442595  0.29414494    -0.74900
O213        O  0.12975793  0.65190027  0.23178263    -0.75000
O214        O  0.12609082  0.62024281  0.29831467    -0.75000
O215        O  0.15424160  0.61855265  0.30073152    -0.75000
O216        O  0.15780767  0.64881429  0.23225603    -0.74900
O217        O  0.15720819  0.65248958  0.29423507    -0.74900
O218        O  0.15483506  0.61488772  0.23850094    -0.75000
Ni219      Ni  0.12692074  0.63619896  0.26500911     1.25400
Ni220      Ni  0.15701498  0.63359057  0.26651795     1.25400
C221        C  0.14045225  0.61040635  0.22745227     0.87300
C222        C  0.14356217  0.65964861  0.30347674     0.87200
C223        C  0.14438158  0.65542881  0.22080740     0.87200
C224        C  0.13959443  0.61425053  0.31060787     0.87400
C225        C  0.14307879  0.26385579  0.48776695     0.86000
C226        C  0.15551269  0.24888644  0.48727275    -0.54200
C227        C  0.15442623  0.23850746  0.01234869     0.08900
C228        C  0.14101837  0.24407523  0.03607510     0.19900
C229        C  0.12575359  0.25538133  0.49167211    -0.54900
C230        C  0.12454726  0.24494049  0.01678959     0.09000
C231        C  0.14642903  0.27281415  0.51833823    -0.54500
C232        C  0.14539118  0.26267857  0.04374377     0.09600
H233        H  0.16405810  0.24600935  0.46850820     0.14100
H234        H  0.14026751  0.23574548  0.05666222    -0.00100
H235        H  0.11569738  0.25675326  0.47472206     0.14400
H236        H  0.14899304  0.28629874  0.01974880     0.14200
O237        O  0.12636264  0.38295852  0.29238489    -0.74900
O238        O  0.12877586  0.34684614  0.23321620    -0.74900
O239        O  0.12839619  0.34897131  0.29555773    -0.75000
O240        O  0.12662718  0.38106159  0.22986236    -0.75000
O241        O  0.15482016  0.38232514  0.22946935    -0.75000
O242        O  0.15653099  0.35104678  0.29678966    -0.74900
O243        O  0.15693495  0.34822015  0.23442816    -0.74900
O244        O  0.15449207  0.38505808  0.29191728    -0.75000
Ni245      Ni  0.12654417  0.36490636  0.26267797     1.25400
Ni246      Ni  0.15670130  0.36672741  0.26312106     1.25400
C247        C  0.14005070  0.38985116  0.30217579     0.87300
C248        C  0.14327476  0.34144403  0.22425658     0.87200
C249        C  0.14270147  0.34491978  0.30737028     0.87200
C250        C  0.14041396  0.38694507  0.21872025     0.87400
O251        O  0.15088318  0.48357517  0.48253616    -0.74900
O252        O  0.15097905  0.51706375  0.04639970    -0.74900
O253        O  0.15105697  0.48295125  0.04489185    -0.75000
O254        O  0.15070522  0.51781173  0.48378602    -0.75000
O255        O  0.12249835  0.51829757  0.48498337    -0.75000
O256        O  0.12283609  0.48227557  0.04404588    -0.74900
O257        O  0.12279297  0.51653316  0.04765064    -0.74900
O258        O  0.12268001  0.48399343  0.48161055    -0.75000
Ni259      Ni  0.15189298  0.50037377  0.01437068     1.25400
Ni260      Ni  0.12168086  0.50029213  0.01456603     1.25400
C261        C  0.13680928  0.47823794  0.47147718     0.87300
C262        C  0.13695731  0.52213107  0.05800955     0.87200
C263        C  0.13701888  0.47678353  0.05437808     0.87200
C264        C  0.13655315  0.52385781  0.47435443     0.87400
O265        O  0.15965984  0.02117481  0.47490911    -0.74900
O266        O  0.12723602  0.98513826  0.47502177    -0.74900
O267        O  0.12537591  0.01944857  0.47549252    -0.75000
O268        O  0.16147684  0.98679271  0.47481244    -0.75000
O269        O  0.16134870  0.98627198  0.02622790    -0.75000
O270        O  0.12620673  0.01968235  0.02690180    -0.74900
O271        O  0.12719124  0.98532599  0.02644067    -0.74900
O272        O  0.16049475  0.02059289  0.02631963    -0.75000
Ni273      Ni  0.14343825  0.00315387  0.47321888     1.25400
Ni274      Ni  0.14381336  0.00298074  0.02827994     1.25400
C275        C  0.16549241  0.02679080  0.00054946     0.87300
C276        C  0.12187143  0.97924692  0.00075402     0.87200
C277        C  0.11994413  0.02507694  0.00141496     0.87200
C278        C  0.16715312  0.98091061  0.00044948     0.87400
O279        O  0.02463426  0.12237815  0.47881345    -0.74900
O280        O  0.98940618  0.15559816  0.47662255    -0.74900
O281        O  0.02375557  0.15663027  0.48109219    -0.75000
O282        O  0.99037654  0.12135165  0.47507514    -0.75000
O283        O  0.98833692  0.12116521  0.02636856    -0.75000
O284        O  0.02248793  0.15500020  0.03239573    -0.74900
O285        O  0.98822669  0.15538239  0.02801877    -0.74900
O286        O  0.02256423  0.12081643  0.03001329    -0.75000
Ni287      Ni  0.00710699  0.13904488  0.47606016     1.25400
Ni288      Ni  0.00533329  0.13807503  0.03100599     1.25400
C289        C  0.02935599  0.11598575  0.00460919     0.87300
C290        C  0.98297450  0.16098339  0.00187371     0.87200
C291        C  0.02883815  0.16137843  0.00789023     0.87200
C292        C  0.98378530  0.11552779  0.99994927     0.87400
O293        O  0.99539636  0.87652063  0.48254624    -0.74900
O294        O  0.03150816  0.84445475  0.48402379    -0.74900
O295        O  0.99716919  0.84238458  0.48634429    -0.75000
O296        O  0.02951325  0.87851119  0.48080163    -0.75000
O297        O  0.03110863  0.87925279  0.03218833    -0.75000
O298        O  0.99741958  0.84466416  0.03759891    -0.74900
O299        O  0.03181558  0.84515901  0.03546779    -0.74900
O300        O  0.99681490  0.87892194  0.03374364    -0.75000
Ni301      Ni  0.01334857  0.86036925  0.48161907     1.25400
Ni302      Ni  0.01429600  0.86202958  0.03660376     1.25400
C303        C  0.99036117  0.88329520  0.00771896     0.87300
C304        C  0.03776709  0.83964553  0.00984966     0.87200
C305        C  0.99170291  0.83779378  0.01292505     0.87200
C306        C  0.03579877  0.88466047  0.00569255     0.87400
O307        O  0.86071403  0.97911228  0.47262860    -0.74900
O308        O  0.89349488  0.01445227  0.47372056    -0.74900
O309        O  0.89494942  0.98012884  0.47259276    -0.75000
O310        O  0.85939947  0.01353350  0.47476139    -0.75000
O311        O  0.86019938  0.01296058  0.02616741    -0.75000
O312        O  0.89458064  0.97922000  0.02400633    -0.74900
O313        O  0.89433191  0.01348916  0.02513312    -0.74900
O314        O  0.86042119  0.97857664  0.02405228    -0.75000
Ni315      Ni  0.87711037  0.99681569  0.47158378     1.25400
Ni316      Ni  0.87738279  0.99602547  0.02665566     1.25400
C317        C  0.85519502  0.97289906  0.99795650     0.87300
C318        C  0.89927447  0.01989428  0.99945638     0.87200
C319        C  0.90048297  0.97406378  0.99821314     0.87200
C320        C  0.85426059  0.01904510  0.00101768     0.87400
C321        C  0.96204927  0.92002237  0.02980430    -0.11300
C322        C  0.95248345  0.92239324  0.00267590     0.05800
C323        C  0.95544415  0.91168217  0.47739302    -0.10100
C324        C  0.96766238  0.89893091  0.47917649    -0.11700
C325        C  0.97711839  0.89650612  0.00635562    -0.01500
C326        C  0.97416143  0.90715705  0.03168380    -0.10600
C327        C  0.93920113  0.93571058  0.00108217     0.05800
H328        H  0.94812565  0.91296074  0.45636182     0.07800
H329        H  0.96961589  0.89087898  0.45928071     0.11200
H330        H  0.98139079  0.90572597  0.05279637     0.11500
H331        H  0.96030886  0.92823605  0.04953274     0.07800
C332        C  0.92914260  0.93913334  0.02700811    -0.11300
C333        C  0.91664835  0.95157521  0.02584848    -0.10600
C334        C  0.91373686  0.96083445  0.99864072    -0.01500
C335        C  0.92362394  0.95735626  0.47250611    -0.11700
C336        C  0.93629939  0.94495814  0.47375688    -0.10100
H337        H  0.93074692  0.93201872  0.04817581     0.07800
H338        H  0.90912691  0.95381658  0.04631091     0.11500
H339        H  0.92171642  0.96435352  0.45128232     0.11200
H340        H  0.94396186  0.94276915  0.45346509     0.07800
C341        C  0.93350864  0.05047175  0.02445404    -0.11300
C342        C  0.93500387  0.06092212  0.99826678     0.05800
C343        C  0.92470461  0.05762874  0.47249130    -0.10100
C344        C  0.91321060  0.04421850  0.47289105    -0.11700
C345        C  0.91163070  0.03390227  0.99917996    -0.01500
C346        C  0.92185862  0.03718124  0.02498337    -0.10600
C347        C  0.94714459  0.07527815  0.99804947     0.05800
H348        H  0.92531692  0.06557974  0.45217018     0.07800
H349        H  0.90536204  0.04208840  0.45273615     0.11200
H350        H  0.92099589  0.02935463  0.04544425     0.11500
H351        H  0.94147280  0.05245099  0.04449270     0.07800
C352        C  0.94980908  0.08483857  0.02493155    -0.11300
C353        C  0.96155779  0.09798340  0.02527453    -0.10600
C354        C  0.97084759  0.10203470  0.99866369    -0.01500
C355        C  0.96793871  0.09279090  0.97149290    -0.11700
C356        C  0.95624215  0.07949321  0.97121627    -0.10100
H357        H  0.94274165  0.08222335  0.04576927     0.07800
H358        H  0.96336153  0.10498444  0.04650808     0.11500
H359        H  0.97495555  0.09558800  0.45066387     0.11200
H360        H  0.95461696  0.07227694  0.45018824     0.07800
C361        C  0.06443166  0.08678766  0.47742028    -0.11300
C362        C  0.06790918  0.07715316  0.00401332     0.05800
C363        C  0.05872476  0.08069491  0.03110291    -0.10100
C364        C  0.04638458  0.09343646  0.03150414    -0.11700
C365        C  0.04277427  0.10282563  0.00474399    -0.01500
C366        C  0.05198028  0.09936862  0.47773785    -0.10600
C367        C  0.08106615  0.06354563  0.00343988     0.05800
H368        H  0.06082111  0.07342106  0.05193367     0.07800
H369        H  0.03948022  0.09573902  0.05265270     0.11200
H370        H  0.04963276  0.10646348  0.45676652     0.11500
H371        H  0.07145807  0.08476856  0.45632849     0.07800
C372        C  0.08387697  0.05389541  0.97658546    -0.11300
C373        C  0.09647734  0.04142571  0.97585827    -0.10600
C374        C  0.10641682  0.03810376  0.00209661    -0.01500
C375        C  0.10346739  0.04752116  0.02906018    -0.11700
C376        C  0.09105502  0.06015081  0.02966454    -0.10100
H377        H  0.07623614  0.05583834  0.95612107     0.07800
H378        H  0.09833935  0.03428519  0.95480918     0.11500
H379        H  0.11099351  0.04535574  0.04961458     0.11200
H380        H  0.08954035  0.06746520  0.05058431     0.07800
C381        C  0.06094815  0.92255117  0.47834241    -0.11300
C382        C  0.07315513  0.92422044  0.00191994     0.05800
C383        C  0.07303437  0.91244412  0.02632791    -0.10100
C384        C  0.06082459  0.89970054  0.02756479    -0.11700
C385        C  0.04870561  0.89810890  0.00403423    -0.01500
C386        C  0.04898168  0.90951628  0.47922741    -0.10600
C387        C  0.08576279  0.93828592  0.00142595     0.05800
H388        H  0.08245059  0.91294256  0.04448055     0.07800
H389        H  0.06101379  0.89091260  0.04676051     0.11200
H390        H  0.03967222  0.90861292  0.46090812     0.11500
H391        H  0.06036929  0.93150287  0.45946539     0.07800
C392        C  0.09196132  0.94476089  0.47335639    -0.11300
C393        C  0.10359784  0.95809930  0.47308687    -0.10600
C394        C  0.10945674  0.96519493  0.00087001    -0.01500
C395        C  0.10340959  0.95865928  0.02888567    -0.11700
C396        C  0.09165220  0.94547672  0.02916689    -0.10100
H397        H  0.08802226  0.93940617  0.45151360     0.07800
H398        H  0.10807446  0.96278095  0.45107922     0.11500
H399        H  0.10764850  0.96382979  0.05071356     0.11200
H400        H  0.08697350  0.94116313  0.05125689     0.07800
C401        C  0.15223074  0.44407957  0.41678366    -0.11300
C402        C  0.13764678  0.44060376  0.39917835     0.05800
C403        C  0.12266870  0.44952573  0.40598629    -0.10100
C404        C  0.12232117  0.46161518  0.42960769    -0.11700
C405        C  0.13698477  0.46522999  0.44678494    -0.01500
C406        C  0.15192768  0.45629299  0.44012192    -0.10600
C407        C  0.13811635  0.42780453  0.37381299     0.05800
H408        H  0.11124686  0.44741016  0.39270149     0.07800
H409        H  0.11062113  0.46831933  0.43409699     0.11200
H410        H  0.16340637  0.45863071  0.45314833     0.11500
H411        H  0.16389599  0.43723555  0.41278984     0.07800
C412        C  0.15276613  0.42567029  0.35576219    -0.11300
C413        C  0.15334629  0.41347013  0.33238988    -0.10600
C414        C  0.13922045  0.40323231  0.32614218    -0.01500
C415        C  0.12448852  0.40549338  0.34379509    -0.11700
C416        C  0.12397389  0.41754587  0.36744643    -0.10100
H417        H  0.16379343  0.43353403  0.35947136     0.07800
H418        H  0.16486220  0.41210358  0.31910791     0.11500
H419        H  0.11344696  0.39767943  0.33978504     0.11200
H420        H  0.11257435  0.41857312  0.38112586     0.07800
C421        C  0.15183505  0.44821889  0.11877884    -0.11300
C422        C  0.13801472  0.43719994  0.12211732     0.05800
C423        C  0.12378093  0.43934213  0.10295475    -0.10100
C424        C  0.12337333  0.45229386  0.08101213    -0.11700
C425        C  0.13726653  0.46319467  0.07762396    -0.01500
C426        C  0.15150364  0.46101500  0.09663917    -0.10600
C427        C  0.13841050  0.42375041  0.14593324     0.05800
H428        H  0.11303018  0.43091231  0.10472761     0.07800
H429        H  0.11229408  0.45364370  0.06643728     0.11200
H430        H  0.16230883  0.46937213  0.09470975     0.11500
H431        H  0.16282900  0.44712200  0.13362340     0.07800
C432        C  0.15345082  0.41481447  0.15201712    -0.11300
C433        C  0.15409117  0.40278585  0.17557529    -0.10600
C434        C  0.13965254  0.39931997  0.19328994    -0.01500
C435        C  0.12450848  0.40795332  0.18677610    -0.11700
C436        C  0.12391000  0.42010138  0.16341251    -0.10100
H437        H  0.16474328  0.41712242  0.13854486     0.07800
H438        H  0.16588116  0.39617600  0.17987666     0.11500
H439        H  0.11320164  0.40558717  0.20018417     0.11200
H440        H  0.11220524  0.42693414  0.15956188     0.07800
C441        C  0.06426854  0.18765839  0.04205051    -0.11300
C442        C  0.06864243  0.19810206  0.01716409     0.05800
C443        C  0.05978221  0.19651843  0.98914317    -0.10100
C444        C  0.04686181  0.18455326  0.98596631    -0.11700
C445        C  0.04239100  0.17416478  0.01094213    -0.01500
C446        C  0.05116847  0.17591158  0.03906609    -0.10600
C447        C  0.08254349  0.21051444  0.02020182     0.05800
H448        H  0.06305500  0.20437397  0.46955352     0.07800
H449        H  0.04032364  0.18349312  0.96405545     0.11200
H450        H  0.04806497  0.16802817  0.05870322     0.11500
H451        H  0.07089177  0.18870988  0.06388457     0.07800
C452        C  0.08009494  0.22733355  0.51088529    -0.11300
C453        C  0.09351102  0.23880496  0.51160384    -0.10600
C454        C  0.10973838  0.23361852  0.02118009    -0.01500
C455        C  0.11200735  0.21694352  0.03170356    -0.11700
C456        C  0.09849273  0.20550839  0.03135929    -0.10100
H457        H  0.06782385  0.23153452  0.50268961     0.07800
H458        H  0.09126735  0.25164991  0.50390859     0.11500
H459        H  0.12438114  0.21245664  0.03872541     0.11200
H460        H  0.10067098  0.19255679  0.03854421     0.07800
C461        C  0.13082868  0.29989407  0.43350979    -0.11300
C462        C  0.14387935  0.29962648  0.41163285     0.05800
C463        C  0.15706374  0.28788285  0.41491540    -0.10100
C464        C  0.15703154  0.27631413  0.43920605    -0.11700
C465        C  0.14368301  0.27613278  0.46074444    -0.01500
C466        C  0.13083543  0.28840563  0.45793799    -0.10600
C467        C  0.14362650  0.31138042  0.38514726     0.05800
H468        H  0.16732364  0.28748112  0.39839239     0.07800
H469        H  0.16772255  0.26789017  0.44094040     0.11200
H470        H  0.12067976  0.28901121  0.47465796     0.11500
H471        H  0.12068661  0.30908461  0.43184869     0.07800
C472        C  0.12854121  0.31415299  0.36874825    -0.11300
C473        C  0.12829410  0.32496497  0.34334034    -0.10600
C474        C  0.14314232  0.33320512  0.33382279    -0.01500
C475        C  0.15824781  0.33043863  0.35023770    -0.11700
C476        C  0.15848276  0.31962160  0.37570150    -0.10100
H477        H  0.11697644  0.30775474  0.37531403     0.07800
H478        H  0.11646935  0.32681216  0.33109237     0.11500
H479        H  0.16985098  0.33673696  0.34358921     0.11200
H480        H  0.17023622  0.31782332  0.38820369     0.07800
C481        C  0.16014578  0.29171654  0.10739951    -0.11300
C482        C  0.14758363  0.28942572  0.12993660     0.05800
C483        C  0.13556187  0.27645776  0.12553884    -0.10100
C484        C  0.13555454  0.26672831  0.09840732    -0.11700
C485        C  0.14747153  0.26990748  0.07516088    -0.01500
C486        C  0.16009475  0.28207698  0.08043946    -0.10600
C487        C  0.14640697  0.30146483  0.15640485     0.05800
H488        H  0.12586698  0.27417115  0.14265178     0.07800
H489        H  0.12564798  0.25746870  0.09480691     0.11200
H490        H  0.16951311  0.28469442  0.06294924     0.11500
H491        H  0.16950638  0.30163170  0.10970283     0.07800
C492        C  0.16112910  0.30812657  0.17012391    -0.11300
C493        C  0.16009134  0.32089655  0.19240151    -0.10600
C494        C  0.14429752  0.32730016  0.20171664    -0.01500
C495        C  0.12954665  0.32024981  0.18883332    -0.11700
C496        C  0.13058769  0.30750951  0.16643750    -0.10100
H497        H  0.17351819  0.30360527  0.16336479     0.07800
H498        H  0.17171277  0.32590037  0.20204110     0.11500
H499        H  0.11717078  0.32484511  0.19552549     0.11200
H500        H  0.11899172  0.30287315  0.15612451     0.07800
C501        C  0.12498839  0.58273477  0.16170613    -0.11300
C502        C  0.13843181  0.57119485  0.15813270     0.05800
C503        C  0.15239722  0.57247038  0.17829470    -0.10100
C504        C  0.15303437  0.58512049  0.20089456    -0.11700
C505        C  0.13960438  0.59663472  0.20426792    -0.01500
C506        C  0.12551571  0.59519635  0.18461028    -0.10600
C507        C  0.13804725  0.55822336  0.13301716     0.05800
H508        H  0.16285039  0.56365101  0.17674814     0.07800
H509        H  0.16401937  0.58583767  0.21584184     0.11200
H510        H  0.11504599  0.60399671  0.18641057     0.11500
H511        H  0.11418025  0.58243893  0.14632140     0.07800
C512        C  0.12268553  0.55082184  0.12345971    -0.11300
C513        C  0.12228478  0.53917766  0.09909887    -0.10600
C514        C  0.13725077  0.53450524  0.08382518    -0.01500
C515        C  0.15263030  0.54166593  0.09366732    -0.11700
C516        C  0.15301734  0.55340592  0.11780833    -0.10100
H517        H  0.11093211  0.55391351  0.13494164     0.07800
H518        H  0.11024203  0.53377908  0.09233202     0.11500
H519        H  0.16441281  0.53835511  0.08245703     0.11200
H520        H  0.16505690  0.55897946  0.12404046     0.07800
C521        C  0.12297878  0.57988927  0.36326133    -0.11300
C522        C  0.13693381  0.57712572  0.38283019     0.05800
C523        C  0.15140041  0.58728173  0.37938477    -0.10100
C524        C  0.15213447  0.59953062  0.35622422    -0.11700
C525        C  0.13834911  0.60201459  0.33622368    -0.01500
C526        C  0.12365503  0.59227846  0.34024970    -0.10600
C527        C  0.13666508  0.56340259  0.40618880     0.05800
H528        H  0.16220715  0.58569996  0.39454376     0.07800
H529        H  0.16353299  0.60702368  0.35388375     0.11200
H530        H  0.11287947  0.59388867  0.32502104     0.11500
H531        H  0.11172284  0.57215521  0.36516829     0.07800
C532        C  0.12205089  0.56018505  0.42366500    -0.11300
C533        C  0.12195000  0.54726063  0.44571490    -0.10600
C534        C  0.13649214  0.53738306  0.45082479    -0.01500
C535        C  0.15104948  0.54052986  0.43321591    -0.11700
C536        C  0.15111198  0.55334767  0.41106439    -0.10100
H537        H  0.11078197  0.56782341  0.42061329     0.07800
H538        H  0.11056565  0.54515030  0.45904498     0.11500
H539        H  0.16237510  0.53298244  0.43636686     0.11200
H540        H  0.16244460  0.55528080  0.39750440     0.07800
C541        C  0.07013055  0.80728262  0.03586956    -0.11300
C542        C  0.08063471  0.80606160  0.00973883     0.05800
C543        C  0.07673928  0.81587351  0.48362289    -0.10100
C544        C  0.06267332  0.82659963  0.48361093    -0.11700
C545        C  0.05230679  0.82789858  0.00982315    -0.01500
C546        C  0.05620121  0.81819139  0.03599634    -0.10600
C547        C  0.09553598  0.79455820  0.00987041     0.05800
H548        H  0.08469712  0.81545983  0.46332845     0.07800
H549        H  0.06008504  0.83412046  0.46323207     0.11200
H550        H  0.04836871  0.81888723  0.05644068     0.11500
H551        H  0.07255343  0.79965666  0.05616979     0.07800
C552        C  0.10511692  0.79243488  0.03694878    -0.11300
C553        C  0.11835393  0.78079015  0.03797761    -0.10600
C554        C  0.12246628  0.77112461  0.01187995    -0.01500
C555        C  0.11355853  0.77377516  0.98430524    -0.11700
C556        C  0.10009123  0.78530874  0.98334596    -0.10100
H557        H  0.10232887  0.79971537  0.05748243     0.07800
H558        H  0.12536655  0.77925836  0.05931591     0.11500
H559        H  0.11657395  0.76648323  0.46391090     0.11200
H560        H  0.09292087  0.78656976  0.46214822     0.07800
C561        C  0.13717775  0.70197004  0.09508334    -0.11300
C562        C  0.14990129  0.70140949  0.11767509     0.05800
C563        C  0.16393455  0.71217876  0.11484806    -0.10100
C564        C  0.16515129  0.72345024  0.09011358    -0.11700
C565        C  0.15227242  0.72423962  0.06759864    -0.01500
C566        C  0.13838434  0.71318407  0.07036997    -0.10600
C567        C  0.14850065  0.68963993  0.14413332     0.05800
H568        H  0.17389383  0.71207121  0.13206894     0.07800
H569        H  0.17624652  0.73133494  0.08912664     0.11200
H570        H  0.12834904  0.71330820  0.05327922     0.11500
H571        H  0.12635054  0.69360749  0.09634034     0.07800
C572        C  0.13288773  0.68726337  0.15897414    -0.11300
C573        C  0.13154003  0.67614864  0.18388422    -0.10600
C574        C  0.14579631  0.66722913  0.19452222    -0.01500
C575        C  0.16141542  0.66962406  0.17970723    -0.11700
C576        C  0.16274622  0.68069880  0.15473525    -0.10100
H577        H  0.12174601  0.69416628  0.15155904     0.07800
H578        H  0.11934928  0.67462710  0.19491414     0.11500
H579        H  0.17260736  0.66284428  0.18724776     0.11200
H580        H  0.17488188  0.68209990  0.14345542     0.07800
C581        C  0.13807578  0.72409962  0.40382623    -0.11300
C582        C  0.14980968  0.71115360  0.39741997     0.05800
C583        C  0.16314811  0.70828084  0.41826060    -0.10100
C584        C  0.16423402  0.71746246  0.44564629    -0.11700
C585        C  0.15211802  0.72985471  0.45273574    -0.01500
C586        C  0.13933098  0.73351049  0.43120623    -0.10600
C587        C  0.14765188  0.69966684  0.37057768     0.05800
H588        H  0.17227846  0.69830355  0.41415159     0.07800
H589        H  0.17422928  0.71445711  0.46192070     0.11200
H590        H  0.12979690  0.74293311  0.43633204     0.11500
H591        H  0.12773296  0.72663338  0.38803615     0.07800
C592        C  0.13185356  0.69225343  0.36422583    -0.11300
C593        C  0.13037572  0.67955002  0.34183243    -0.10600
C594        C  0.14468228  0.67400369  0.32541623    -0.01500
C595        C  0.16030786  0.68196031  0.33088409    -0.11700
C596        C  0.16176728  0.69464910  0.35316538    -0.10100
H597        H  0.12080218  0.69572877  0.37755051     0.07800
H598        H  0.11816012  0.67367668  0.33813513     0.11500
H599        H  0.17151957  0.67816483  0.31831447     0.11200
H600        H  0.17405430  0.70028060  0.35733841     0.07800
C601        C  0.43338090  0.14437127  0.16632755    -0.11300
C602        C  0.43553458  0.12994783  0.14768262     0.05800
C603        C  0.42530001  0.11572014  0.15342761    -0.10100
C604        C  0.41319185  0.11595621  0.17696667    -0.11700
C605        C  0.41087042  0.13048090  0.19517842    -0.01500
C606        C  0.42114647  0.14466460  0.18964912    -0.10600
C607        C  0.44827241  0.12978952  0.12223602     0.05800
H608        H  0.42635838  0.10448974  0.13927190     0.07800
H609        H  0.40533978  0.10488969  0.18036924     0.11200
H610        H  0.41971509  0.15603647  0.20333581     0.11500
H611        H  0.44121655  0.15545035  0.16302936     0.07800
C612        C  0.45145231  0.14445149  0.10470672    -0.11300
C613        C  0.46342135  0.14430535  0.08091318    -0.10600
C614        C  0.47240217  0.12945189  0.07380244    -0.01500
C615        C  0.46917025  0.11476887  0.09113158    -0.11700
C616        C  0.45733147  0.11495446  0.11512148    -0.10100
H617        H  0.44451826  0.15602450  0.10906007     0.07800
H618        H  0.46550423  0.15579862  0.06784857     0.11500
H619        H  0.47594925  0.10314248  0.08639711     0.11200
H620        H  0.45546103  0.10349796  0.12837763     0.07800
C621        C  0.45046875  0.14429812  0.40734717    -0.11300
C622        C  0.44183475  0.12927004  0.39996768     0.05800
C623        C  0.44670694  0.11418080  0.41477401    -0.10100
C624        C  0.46005282  0.11407470  0.43599427    -0.11700
C625        C  0.46873003  0.12908413  0.44315708    -0.01500
C626        C  0.46369864  0.14421793  0.42878984    -0.10600
C627        C  0.42824654  0.12926844  0.37613567     0.05800
H628        H  0.44015866  0.10242946  0.41009689     0.07800
H629        H  0.46351758  0.10222818  0.44689488     0.11200
H630        H  0.47014637  0.15599399  0.43377040     0.11500
H631        H  0.44729237  0.15609803  0.39602282     0.07800
C632        C  0.41733886  0.14324433  0.37276207    -0.11300
C633        C  0.40544401  0.14374121  0.34886184    -0.10600
C634        C  0.40399307  0.13014438  0.32820811    -0.01500
C635        C  0.41439895  0.11591438  0.33219198    -0.11700
C636        C  0.42649785  0.11553638  0.35572178    -0.10100
H637        H  0.41804808  0.15386438  0.38847945     0.07800
H638        H  0.39739446  0.15477325  0.34649613     0.11500
H639        H  0.41359357  0.10530909  0.31643119     0.11200
H640        H  0.43483419  0.10468894  0.35725343     0.07800
C641        C  0.19200792  0.06407655  0.47417269    -0.11300
C642        C  0.20227774  0.06714599  0.00017319     0.05800
C643        C  0.20035092  0.05658521  0.02617136    -0.10100
C644        C  0.18831276  0.04363251  0.02638710    -0.11700
C645        C  0.17814937  0.04060211  0.00037230    -0.01500
C646        C  0.18020810  0.05087831  0.47418502    -0.10600
C647        C  0.21468625  0.08143129  0.00052023     0.05800
H648        H  0.20825540  0.05815579  0.04638913     0.07800
H649        H  0.18714243  0.03581431  0.04680975     0.11200
H650        H  0.17246341  0.04891767  0.45384318     0.11500
H651        H  0.19280103  0.07205476  0.45393061     0.07800
C652        C  0.22279396  0.08693216  0.97329845    -0.11300
C653        C  0.23431693  0.10042345  0.97398239    -0.10600
C654        C  0.23827495  0.10838385  0.00196203    -0.01500
C655        C  0.23017040  0.10301070  0.02903603    -0.11700
C656        C  0.21844341  0.08984937  0.02830366    -0.10100
H657        H  0.22048029  0.08067463  0.95149638     0.07800
H658        H  0.24043394  0.10434506  0.95283304     0.11500
H659        H  0.23271533  0.10921098  0.05084605     0.11200
H660        H  0.21215448  0.08648958  0.04959278     0.07800
C661        C  0.18707319  0.20689894  0.03927794    -0.11300
C662        C  0.18910990  0.19692580  0.01259662     0.05800
C663        C  0.17798654  0.19926986  0.48769780    -0.10100
C664        C  0.16594253  0.21220336  0.48850260    -0.11700
C665        C  0.16468043  0.22288287  0.01434080    -0.01500
C666        C  0.17483532  0.21971691  0.04022813    -0.10600
C667        C  0.20388294  0.18548134  0.00945221     0.05800
H668        H  0.17929844  0.19180629  0.46688188     0.07800
H669        H  0.15807631  0.21436463  0.46836177     0.11200
H670        H  0.17404997  0.22782343  0.06032487     0.11500
H671        H  0.19540302  0.20518609  0.05892875     0.07800
C672        C  0.22003554  0.19144147  0.01729493    -0.11300
C673        C  0.23417830  0.18105484  0.01418724    -0.10600
C674        C  0.23252915  0.16432251  0.00359000    -0.01500
C675        C  0.21645003  0.15846215  0.49473821    -0.11700
C676        C  0.20222481  0.16900794  0.49750826    -0.10100
H677        H  0.22174784  0.20424468  0.02564429     0.07800
H678        H  0.24644918  0.18609088  0.02051029     0.11500
H679        H  0.21477630  0.14558261  0.48679719     0.11200
H680        H  0.18988880  0.16417867  0.49106391     0.07800
C681        C  0.32337669  0.12144449  0.14427256    -0.11300
C682        C  0.32126324  0.13690732  0.12874574     0.05800
C683        C  0.32982307  0.15130059  0.13951940    -0.10100
C684        C  0.34001769  0.15035000  0.16573894    -0.11700
C685        C  0.34190824  0.13496529  0.18161755    -0.01500
C686        C  0.33363527  0.12047191  0.17046727    -0.10600
C687        C  0.30951657  0.13821109  0.10230716     0.05800
H688        H  0.32860829  0.16331300  0.12767275     0.07800
H689        H  0.34642572  0.16168087  0.17354241     0.11200
H690        H  0.33490006  0.10843203  0.18219949     0.11500
H691        H  0.31675282  0.11020478  0.13662907     0.07800
C692        C  0.30893145  0.12551507  0.07974830    -0.11300
C693        C  0.29712880  0.12641486  0.05582549    -0.10600
C694        C  0.28546808  0.13988007  0.05412504    -0.01500
C695        C  0.28661420  0.15292350  0.07619275    -0.11700
C696        C  0.29843040  0.15201938  0.10003445    -0.10100
H697        H  0.31758497  0.11488722  0.08063819     0.07800
H698        H  0.29689000  0.11639533  0.03877628     0.11500
H699        H  0.27862596  0.16396113  0.07556559     0.11200
H700        H  0.29862371  0.16199581  0.11716167     0.07800
C701        C  0.29651452  0.15375361  0.40550103    -0.11300
C702        C  0.29463483  0.14001466  0.38519665     0.05800
C703        C  0.28237499  0.12761992  0.39196003    -0.10100
C704        C  0.27293714  0.12847188  0.41932954    -0.11700
C705        C  0.27576440  0.14160966  0.44044121    -0.01500
C706        C  0.28721804  0.15451268  0.43279446    -0.10600
C707        C  0.30649601  0.13807628  0.35873942     0.05800
H708        H  0.28049594  0.11698508  0.37659524     0.07800
H709        H  0.26430318  0.11830537  0.42493575     0.11200
H710        H  0.28964154  0.16474469  0.44883598     0.11500
H711        H  0.30592971  0.16342354  0.40127708     0.07800
C712        C  0.31180454  0.15229803  0.34183741    -0.11300
C713        C  0.32460524  0.15089706  0.31975758    -0.10600
C714        C  0.33238220  0.13522040  0.31387641    -0.01500
C715        C  0.32658500  0.12084247  0.32977639    -0.11700
C716        C  0.31381169  0.12226281  0.35201573    -0.10100
H717        H  0.30626514  0.16461177  0.34610781     0.07800
H718        H  0.32861162  0.16219163  0.30765063     0.11500
H719        H  0.33231174  0.10858355  0.32580243     0.11200
H720        H  0.31018995  0.11109613  0.36488701     0.07800
C721        C  0.55852173  0.11239606  0.39900195    -0.11300
C722        C  0.56691924  0.12729572  0.38994569     0.05800
C723        C  0.56256445  0.14254631  0.40476012    -0.10100
C724        C  0.55013442  0.14290392  0.42777043    -0.11700
C725        C  0.54179016  0.12800320  0.43680978    -0.01500
C726        C  0.54617184  0.11273923  0.42216236    -0.10600
C727        C  0.58007150  0.12696307  0.36511945     0.05800
H728        H  0.56893196  0.15422990  0.39889918     0.07800
H729        H  0.54718836  0.15486291  0.43871017     0.11200
H730        H  0.53997210  0.10102441  0.42845300     0.11500
H731        H  0.56129499  0.10045592  0.38787343     0.07800
C732        C  0.59110261  0.11305832  0.36190518    -0.11300
C733        C  0.60335207  0.11276077  0.33855221    -0.10600
C734        C  0.60506107  0.12645286  0.31807223    -0.01500
C735        C  0.59413710  0.14037227  0.32129169    -0.11700
C736        C  0.58172715  0.14057184  0.34433798    -0.10100
H737        H  0.59046909  0.10248297  0.37774271     0.07800
H738        H  0.61173005  0.10194201  0.33691869     0.11500
H739        H  0.59507329  0.15106652  0.30575140     0.11200
H740        H  0.57329820  0.15135318  0.34562213     0.07800
C741        C  0.58636686  0.11233564  0.15516413    -0.11300
C742        C  0.58353619  0.12714953  0.13780788     0.05800
C743        C  0.59346927  0.14149871  0.14415735    -0.10100
C744        C  0.60564529  0.14114975  0.16758593    -0.11700
C745        C  0.60836196  0.12638325  0.18498897    -0.01500
C746        C  0.59872301  0.11192283  0.17832137    -0.10600
C747        C  0.57018404  0.12768025  0.11345950     0.05800
H748        H  0.59194285  0.15300981  0.13088657     0.07800
H749        H  0.61299916  0.15245765  0.17197963     0.11200
H750        H  0.60046131  0.10038956  0.19146998     0.11500
H751        H  0.57879182  0.10112289  0.15135392     0.07800
C752        C  0.56660396  0.11327275  0.09555373    -0.11300
C753        C  0.55378984  0.11361633  0.07328749    -0.10600
C754        C  0.54439540  0.12843976  0.06803483    -0.01500
C755        C  0.54810145  0.14294328  0.08549128    -0.11700
C756        C  0.56076312  0.14253708  0.10809297    -0.10100
H757        H  0.57380099  0.10172185  0.09851094     0.07800
H758        H  0.55132865  0.10227778  0.05999170     0.11500
H759        H  0.54099282  0.15452478  0.08210496     0.11200
H760        H  0.56292018  0.15379557  0.12175507     0.07800
C761        C  0.80752811  0.08786090  0.02446418    -0.11300
C762        C  0.80451540  0.07265823  0.00858200     0.05800
C763        C  0.78883485  0.07024171  0.49411276    -0.10100
C764        C  0.77665764  0.08301635  0.49433313    -0.11700
C765        C  0.77996704  0.09873366  0.00844164    -0.01500
C766        C  0.79535810  0.10080310  0.02437459    -0.10600
C767        C  0.81763147  0.05930791  0.00657771     0.05800
H768        H  0.78602012  0.05843944  0.48249926     0.07800
H769        H  0.76468561  0.08055324  0.48303852     0.11200
H770        H  0.79829696  0.11250727  0.03586081     0.11500
H771        H  0.81951326  0.08994838  0.03605267     0.07800
C772        C  0.82157372  0.05193316  0.47794897    -0.11300
C773        C  0.83350060  0.03888861  0.47600030    -0.10600
C774        C  0.84157347  0.03283000  0.00272523    -0.01500
C775        C  0.83767899  0.04032820  0.03133771    -0.11700
C776        C  0.82591010  0.05350420  0.03320567    -0.10100
H777        H  0.81544334  0.05633266  0.45703874     0.07800
H778        H  0.83631006  0.03348586  0.45362649     0.11500
H779        H  0.84375815  0.03604486  0.05236906     0.11200
H780        H  0.82301132  0.05892930  0.05552940     0.07800
C781        C  0.71142131  0.11469133  0.42254797    -0.11300
C782        C  0.71041748  0.12803306  0.40123792     0.05800
C783        C  0.72121231  0.14197517  0.40483999    -0.10100
C784        C  0.73266914  0.14270004  0.42932876    -0.11700
C785        C  0.73374936  0.12936673  0.45089721    -0.01500
C786        C  0.72293165  0.11536051  0.44701469    -0.10600
C787        C  0.69815500  0.12751936  0.37531819     0.05800
H788        H  0.72090119  0.15234992  0.38850578     0.07800
H789        H  0.74036037  0.15389244  0.43085318     0.11200
H790        H  0.72332034  0.10492960  0.46323990     0.11500
H791        H  0.70311522  0.10385221  0.42061567     0.07800
C792        C  0.69522862  0.11241381  0.35907527    -0.11300
C793        C  0.68395657  0.11208923  0.33418909    -0.10600
C794        C  0.67547281  0.12688874  0.32495648    -0.01500
C795        C  0.67829694  0.14195301  0.34135486    -0.11700
C796        C  0.68946360  0.14224936  0.36633017    -0.10100
H797        H  0.70188617  0.10091044  0.36524545     0.07800
H798        H  0.68203728  0.10029529  0.32196600     0.11500
H799        H  0.67177969  0.15351637  0.33504205     0.11200
H800        H  0.69120014  0.15400414  0.37876609     0.07800
C801        C  0.71687816  0.11239037  0.09714658    -0.11300
C802        C  0.71811486  0.12530091  0.11936359     0.05800
C803        C  0.73029071  0.13812237  0.11496242    -0.10100
C804        C  0.74046694  0.13834851  0.08838406    -0.11700
C805        C  0.73849622  0.12587855  0.06565090    -0.01500
C806        C  0.72687859  0.11273123  0.07060414    -0.10600
C807        C  0.70597569  0.12578786  0.14577970     0.05800
H808        H  0.73169481  0.14816451  0.13175358     0.07800
H809        H  0.74919648  0.14872099  0.08480366     0.11200
H810        H  0.72504510  0.10306695  0.05318899     0.11500
H811        H  0.70754774  0.10244820  0.09945109     0.07800
C812        C  0.69855709  0.14113176  0.15520865    -0.11300
C813        C  0.68601334  0.14137298  0.17807033    -0.10600
C814        C  0.68052962  0.12627136  0.19205679    -0.01500
C815        C  0.68825834  0.11099125  0.18319769    -0.11700
C816        C  0.70081475  0.11075708  0.16042545    -0.10100
H817        H  0.70202654  0.15291820  0.14416924     0.07800
H818        H  0.68033873  0.15337131  0.18428287     0.11500
H819        H  0.68448671  0.09913557  0.19365470     0.11200
H820        H  0.70640697  0.09874058  0.15409362     0.07800
C821        C  0.43404510  0.85079366  0.33212140    -0.11300
C822        C  0.43779076  0.86535093  0.34959830     0.05800
C823        C  0.42865774  0.88028405  0.34327605    -0.10100
C824        C  0.41629927  0.88069143  0.32006048    -0.11700
C825        C  0.41253206  0.86612005  0.30281924    -0.01500
C826        C  0.42150467  0.85114645  0.30921705    -0.10600
C827        C  0.45107323  0.86497213  0.37431450     0.05800
H828        H  0.43083851  0.89166024  0.35658312     0.07800
H829        H  0.40949429  0.89238334  0.31594776     0.11200
H830        H  0.41897087  0.83970925  0.29625498     0.11500
H831        H  0.44095046  0.83912852  0.33578451     0.07800
C832        C  0.45393929  0.85024333  0.39190144    -0.11300
C833        C  0.46629278  0.84993972  0.41512522    -0.10600
C834        C  0.47596250  0.86441683  0.42173691    -0.01500
C835        C  0.47314829  0.87914012  0.40427484    -0.11700
C836        C  0.46096710  0.87937943  0.38073648    -0.10100
H837        H  0.44643336  0.83897908  0.38817383     0.07800
H838        H  0.46807029  0.83841342  0.42827459     0.11500
H839        H  0.48049260  0.89046188  0.40858693     0.11200
H840        H  0.45946438  0.89085051  0.36735681     0.07800
C841        C  0.43305961  0.87956531  0.14170206    -0.11300
C842        C  0.43505784  0.86513086  0.12310499     0.05800
C843        C  0.42459395  0.85103607  0.12836625    -0.10100
C844        C  0.41258288  0.85129551  0.15193771    -0.11700
C845        C  0.41061851  0.86574257  0.17040376    -0.01500
C846        C  0.42088299  0.87990975  0.16494152    -0.10600
C847        C  0.44817147  0.86471670  0.09865768     0.05800
H848        H  0.42556757  0.83983977  0.11409522     0.07800
H849        H  0.40469147  0.84026604  0.15546126     0.11200
H850        H  0.41970065  0.89118047  0.17898822     0.11500
H851        H  0.44110727  0.89051897  0.13870035     0.07800
C852        C  0.45197445  0.87934793  0.08155013    -0.11300
C853        C  0.46466800  0.87907701  0.05922388    -0.10600
C854        C  0.47367232  0.86411541  0.05323449    -0.01500
C855        C  0.46973958  0.84942612  0.06996055    -0.11700
C856        C  0.45719665  0.84974759  0.09256429    -0.10100
H857        H  0.44505783  0.89100403  0.08522435     0.07800
H858        H  0.46734512  0.89056312  0.04650017     0.11500
H859        H  0.47656482  0.83774024  0.06597676     0.11200
H860        H  0.45481907  0.83833531  0.10567815     0.07800
C861        C  0.19566928  0.94498515  0.02700096    -0.11300
C862        C  0.20373406  0.94031957  0.99938754     0.05800
C863        C  0.20027300  0.94977259  0.47251698    -0.10100
C864        C  0.18860745  0.96307535  0.47295062    -0.11700
C865        C  0.18026860  0.96746630  0.00036547    -0.01500
C866        C  0.18412619  0.95844320  0.02750218    -0.10600
C867        C  0.21539202  0.92546664  0.99815103     0.05800
H868        H  0.20657619  0.94689534  0.45099274     0.07800
H869        H  0.18606516  0.96987466  0.45172944     0.11200
H870        H  0.17788451  0.96148618  0.04902335     0.11500
H871        H  0.19788687  0.93794834  0.04806620     0.07800
C872        C  0.22628530  0.92141500  0.02294884    -0.11300
C873        C  0.23777710  0.90790983  0.02060531    -0.10600
C874        C  0.23870732  0.89845573  0.99330912    -0.01500
C875        C  0.22742381  0.90204683  0.46912562    -0.11700
C876        C  0.21584441  0.91527632  0.47158278    -0.10100
H877        H  0.22632754  0.92899044  0.04374855     0.07800
H878        H  0.24636897  0.90529948  0.03952536     0.11500
H879        H  0.22767762  0.89464764  0.44808501     0.11200
H880        H  0.20728214  0.91755579  0.45248357     0.07800
C881        C  0.22188733  0.82185098  0.02612053    -0.11300
C882        C  0.21166101  0.81667524  0.00121277     0.05800
C883        C  0.21317353  0.82498287  0.47278089    -0.10100
C884        C  0.22512691  0.83775641  0.46890659    -0.11700
C885        C  0.23575986  0.84258621  0.99343669    -0.01500
C886        C  0.23376002  0.83485397  0.02232907    -0.10600
C887        C  0.19999038  0.80213394  0.00419082     0.05800
H888        H  0.20549701  0.82119015  0.45322830     0.07800
H889        H  0.22624410  0.84371561  0.44648510     0.11200
H890        H  0.24182354  0.83837210  0.04152573     0.11500
H891        H  0.22081564  0.81568391  0.04835802     0.07800
C892        C  0.20578705  0.78680104  0.01664862    -0.11300
C893        C  0.19501973  0.77283493  0.01844047    -0.10600
C894        C  0.17813296  0.77397458  0.00821819    -0.01500
C895        C  0.17238954  0.78930896  0.99550620    -0.11700
C896        C  0.18324903  0.80322584  0.99335107    -0.10100
H897        H  0.21875068  0.78554995  0.02453608     0.07800
H898        H  0.19995900  0.76112457  0.02781453     0.11500
H899        H  0.15938902  0.79074765  0.48800612     0.11200
H900        H  0.17849724  0.81495314  0.48368467     0.07800
C901        C  0.30578393  0.88220196  0.40089766    -0.11300
C902        C  0.30378441  0.87054016  0.37676895     0.05800
C903        C  0.29042271  0.85890013  0.37802884    -0.10100
C904        C  0.27974852  0.85834663  0.40356799    -0.11700
C905        C  0.28222423  0.86944691  0.42863668    -0.01500
C906        C  0.29505600  0.88173019  0.42637715    -0.10600
C907        C  0.31605301  0.86997542  0.35108005     0.05800
H908        H  0.28827102  0.85011045  0.35925746     0.07800
H909        H  0.26969358  0.84917301  0.40299994     0.11200
H910        H  0.29706961  0.89071383  0.44489726     0.11500
H911        H  0.31599773  0.89132647  0.40061739     0.07800
C912        C  0.32257393  0.88496474  0.33843685    -0.11300
C913        C  0.33474402  0.88430910  0.31520663    -0.10600
C914        C  0.34060291  0.86864917  0.30415362    -0.01500
C915        C  0.33392770  0.85366865  0.31653074    -0.11700
C916        C  0.32179035  0.85432855  0.33978586    -0.10100
H917        H  0.31823204  0.89719525  0.34644406     0.07800
H918        H  0.33959331  0.89608259  0.30599321     0.11500
H919        H  0.33819135  0.84141818  0.30848049     0.11200
H920        H  0.31718731  0.84256318  0.34943923     0.07800
C921        C  0.28872220  0.87755440  0.09556622    -0.11300
C922        C  0.30237282  0.86618517  0.09864973     0.05800
C923        C  0.30550445  0.85464061  0.07468625    -0.10100
C924        C  0.29566895  0.85482228  0.04790615    -0.11700
C925        C  0.28237037  0.86648894  0.04437969    -0.01500
C926        C  0.27870044  0.87759491  0.06873015    -0.10600
C927        C  0.31389605  0.86665615  0.12590119     0.05800
H928        H  0.31599573  0.84584042  0.07612832     0.07800
H929        H  0.29869965  0.84602915  0.02956170     0.11200
H930        H  0.26857632  0.88675776  0.06647073     0.11500
H931        H  0.28592394  0.88650851  0.11375953     0.07800
C932        C  0.31995472  0.88211929  0.13756715    -0.11300
C933        C  0.33221950  0.88240232  0.16102978    -0.10600
C934        C  0.33862712  0.86722115  0.17341477    -0.01500
C935        C  0.33208696  0.85180022  0.16246688    -0.11700
C936        C  0.31991064  0.85152483  0.13901946    -0.10100
H937        H  0.31567847  0.89398846  0.12776022     0.07800
H938        H  0.33691464  0.89449926  0.16903182     0.11500
H939        H  0.33658954  0.83986142  0.17163859     0.11200
H940        H  0.31532883  0.83941476  0.13085178     0.07800
C941        C  0.59177769  0.87575968  0.13969319    -0.11300
C942        C  0.58226280  0.86113512  0.13323000     0.05800
C943        C  0.58573540  0.84634508  0.15035798    -0.10100
C944        C  0.59848446  0.84618062  0.17296159    -0.11700
C945        C  0.60789724  0.86086024  0.17929625    -0.01500
C946        C  0.60429177  0.87565459  0.16252183    -0.10600
C947        C  0.56908586  0.86134912  0.10833792     0.05800
H948        H  0.57853020  0.83489737  0.14652507     0.07800
H949        H  0.60088676  0.83460004  0.18561667     0.11200
H950        H  0.61139637  0.88715379  0.16659896     0.11500
H951        H  0.58986032  0.88728719  0.12665643     0.07800
C952        C  0.55982893  0.87619396  0.10184000    -0.11300
C953        C  0.54813037  0.87669168  0.07754532    -0.10600
C954        C  0.54511326  0.86227863  0.05941566    -0.01500
C955        C  0.55403869  0.84733071  0.06622406    -0.11700
C956        C  0.56594864  0.84689892  0.09021148    -0.10100
H957        H  0.56150579  0.88747544  0.11564556     0.07800
H958        H  0.54130760  0.88834625  0.07317155     0.11500
H959        H  0.55203729  0.83600754  0.05263913     0.11200
H960        H  0.57295746  0.83531033  0.09402467     0.07800
C961        C  0.59004164  0.87710125  0.33984681    -0.11300
C962        C  0.58670806  0.86250384  0.35736300     0.05800
C963        C  0.59608483  0.84772102  0.35139509    -0.10100
C964        C  0.60830947  0.84748540  0.32818836    -0.11700
C965        C  0.61159282  0.86209456  0.31076887    -0.01500
C966        C  0.60242570  0.87692795  0.31696874    -0.10600
C967        C  0.57338245  0.86266099  0.38147852     0.05800
H968        H  0.59410059  0.83634331  0.36482322     0.07800
H969        H  0.61526951  0.83589588  0.32404110     0.11200
H970        H  0.60459233  0.88834874  0.30373241     0.11500
H971        H  0.58286067  0.88861008  0.34335515     0.07800
C972        C  0.57043502  0.87726161  0.39924368    -0.11300
C973        C  0.55770175  0.87747755  0.42151502    -0.10600
C974        C  0.54782145  0.86301943  0.42683865    -0.01500
C975        C  0.55081964  0.84838898  0.40933071    -0.11700
C976        C  0.56337134  0.84824780  0.38674442    -0.10100
H977        H  0.57808914  0.88849135  0.39622929     0.07800
H978        H  0.55572576  0.88890939  0.43480922     0.11500
H979        H  0.54327579  0.83710870  0.41273588     0.11200
H980        H  0.56502191  0.83690725  0.37307678     0.07800
C981        C  0.79043464  0.92057138  0.00701990    -0.11300
C982        C  0.80584843  0.91883892  0.99137102     0.05800
C983        C  0.80877956  0.90405338  0.47413926    -0.10100
C984        C  0.79685528  0.89094487  0.47381527    -0.11700
C985        C  0.78180124  0.89228388  0.99090295    -0.01500
C986        C  0.77852847  0.90755513  0.00659900    -0.10600
C987        C  0.81876783  0.93243924  0.99324483     0.05800
H988        H  0.82052466  0.90240217  0.46166017     0.07800
H989        H  0.79977067  0.87964136  0.46090032     0.11200
H990        H  0.76676855  0.90954362  0.01879588     0.11500
H991        H  0.78756041  0.93204965  0.01962168     0.07800
C992        C  0.82764663  0.93754437  0.96682803    -0.11300
C993        C  0.83944863  0.95066751  0.96847819    -0.10600
C994        C  0.84275045  0.95890847  0.99664145    -0.01500
C995        C  0.83408081  0.95362104  0.02319718    -0.11700
C996        C  0.82216155  0.94056865  0.02148479    -0.10100
H997        H  0.82522302  0.93161158  0.94473277     0.07800
H998        H  0.84599380  0.95436091  0.94760655     0.11500
H999        H  0.83639125  0.95966228  0.04523425     0.11200
H1000       H  0.81567002  0.93673725  0.04233010     0.07800
C1001       C  0.71311111  0.87337337  0.07351646    -0.11300
C1002       C  0.71343507  0.86056735  0.09591603     0.05800
C1003       C  0.72527883  0.84742736  0.09321928    -0.10100
C1004       C  0.73652630  0.84697082  0.06849109    -0.11700
C1005       C  0.73622367  0.85973188  0.04575668    -0.01500
C1006       C  0.72438909  0.87297465  0.04882481    -0.10600
C1007       C  0.70145077  0.86083161  0.12204967     0.05800
H1008       H  0.72599019  0.83755434  0.11052428     0.07800
H1009       H  0.74537076  0.83661124  0.06796020     0.11200
H1010       H  0.72385980  0.88304839  0.03187827     0.11500
H1011       H  0.70399783  0.88359188  0.07487563     0.07800
C1012       C  0.69787143  0.87601451  0.13755013    -0.11300
C1013       C  0.68665578  0.87617310  0.16237993    -0.10600
C1014       C  0.67885832  0.86114052  0.17220328    -0.01500
C1015       C  0.68243264  0.84597049  0.15666379    -0.11700
C1016       C  0.69359074  0.84582849  0.13179027    -0.10100
H1017       H  0.70392175  0.88772026  0.13073726     0.07800
H1018       H  0.68417797  0.88804971  0.17399091     0.11500
H1019       H  0.67648961  0.83421841  0.16352606     0.11200
H1020       H  0.69593143  0.83399711  0.11993305     0.07800
C1021       C  0.70227149  0.87960942  0.33823745    -0.11300
C1022       C  0.70951801  0.86475522  0.35040767     0.05800
C1023       C  0.70415313  0.84906950  0.33851872    -0.10100
C1024       C  0.69152018  0.84826124  0.31577070    -0.11700
C1025       C  0.68393827  0.86311988  0.30436897    -0.01500
C1026       C  0.68964523  0.87880136  0.31561635    -0.10600
C1027       C  0.72155399  0.86560652  0.37701479     0.05800
H1028       H  0.70926278  0.83735777  0.34758706     0.07800
H1029       H  0.68746987  0.83597564  0.30755408     0.11200
H1030       H  0.68419447  0.89052001  0.30723730     0.11500
H1031       H  0.70625189  0.89192432  0.34640745     0.07800
C1032       C  0.73502485  0.85399235  0.38025615    -0.11300
C1033       C  0.74497184  0.85375591  0.40719755    -0.10600
C1034       C  0.74150765  0.86503150  0.43134368    -0.01500
C1035       C  0.72871848  0.87718942  0.42741936    -0.11700
C1036       C  0.71888127  0.87749161  0.40065318    -0.10100
H1037       H  0.73759655  0.84482120  0.36232000     0.07800
H1038       H  0.75469736  0.84419258  0.40988676     0.11500
H1039       H  0.72581047  0.88599371  0.44582696     0.11200
H1040       H  0.70855893  0.88648373  0.39931524     0.07800
C1041       C  0.89270609  0.41798788  0.16183755    -0.11300
C1042       C  0.87797307  0.42673637  0.15263754     0.05800
C1043       C  0.86272439  0.42306076  0.16801544    -0.10100
C1044       C  0.86215118  0.41079172  0.19131034    -0.11700
C1045       C  0.87683894  0.40195382  0.20020115    -0.01500
C1046       C  0.89215857  0.40583665  0.18539185    -0.10600
C1047       C  0.87845482  0.43948140  0.12701848     0.05800
H1048       H  0.85117351  0.42973576  0.16225084     0.07800
H1049       H  0.85013630  0.40820906  0.20232253     0.11200
H1050       H  0.90369754  0.39922368  0.19154100     0.11500
H1051       H  0.90465116  0.42019532  0.15036403     0.07800
C1052       C  0.89294871  0.44946794  0.12193381    -0.11300
C1053       C  0.89341565  0.46130267  0.09786694    -0.10600
C1054       C  0.87930896  0.46370804  0.07854246    -0.01500
C1055       C  0.86480293  0.45381506  0.08355055    -0.11700
C1056       C  0.86442671  0.44177334  0.10727660    -0.10100
H1057       H  0.90390061  0.44837706  0.13684929     0.07800
H1058       H  0.90474634  0.46880761  0.09474876     0.11500
H1059       H  0.85377874  0.45523567  0.06886317     0.11200
H1060       H  0.85316863  0.43411661  0.10982500     0.07800
C1061       C  0.89341088  0.41581688  0.36618036    -0.11300
C1062       C  0.87863238  0.42089550  0.38162848     0.05800
C1063       C  0.86314065  0.41330658  0.37365614    -0.10100
C1064       C  0.86230091  0.40152022  0.34979761    -0.11700
C1065       C  0.87697468  0.39688570  0.33368559    -0.01500
C1066       C  0.89259706  0.40386534  0.34252300    -0.10600
C1067       C  0.87916172  0.43467595  0.40478921     0.05800
H1068       H  0.85159787  0.41659908  0.38567419     0.07800
H1069       H  0.85012752  0.39611980  0.34385676     0.11200
H1070       H  0.90413740  0.40045386  0.33059273     0.11500
H1071       H  0.90552087  0.42150573  0.37157579     0.07800
C1072       C  0.89296277  0.43638419  0.42511591    -0.11300
C1073       C  0.89348133  0.44970800  0.44627585    -0.10600
C1074       C  0.88009394  0.46137276  0.44777386    -0.01500
C1075       C  0.86631898  0.45966315  0.42757104    -0.11700
C1076       C  0.86592369  0.44655153  0.40613368    -0.10100
H1077       H  0.90326448  0.42733928  0.42490573     0.07800
H1078       H  0.90418555  0.45070836  0.46183709     0.11500
H1079       H  0.85593102  0.46861754  0.42805753     0.11200
H1080       H  0.85533051  0.44588518  0.39028286     0.07800
C1081       C  0.94595423  0.18718492  0.47282996    -0.11300
C1082       C  0.94237783  0.19736488  0.99854414     0.05800
C1083       C  0.95240384  0.19566649  0.02523004    -0.10100
C1084       C  0.96557730  0.18384386  0.02636567    -0.11700
C1085       C  0.96918433  0.17367384  0.00064691    -0.01500
C1086       C  0.95933078  0.17556811  0.47376609    -0.10600
C1087       C  0.92805123  0.20951465  0.99798406     0.05800
H1088       H  0.94981587  0.20326358  0.04547871     0.07800
H1089       H  0.97298386  0.18270295  0.04733240     0.11200
H1090       H  0.96178207  0.16785672  0.45360624     0.11500
H1091       H  0.93847180  0.18831020  0.45194852     0.07800
C1092       C  0.93021943  0.22598921  0.00935299    -0.11300
C1093       C  0.91646147  0.23702209  0.01142333    -0.10600
C1094       C  0.90014962  0.23176513  0.00255857    -0.01500
C1095       C  0.89810019  0.21552824  0.98990502    -0.11700
C1096       C  0.91194983  0.20451934  0.98753114    -0.10100
H1097       H  0.94255582  0.23025774  0.51702948     0.07800
H1098       H  0.91856192  0.24958782  0.52059002     0.11500
H1099       H  0.88569203  0.21100936  0.98323109     0.11200
H1100       H  0.90993163  0.19183908  0.97880918     0.07800
C1101       C  0.79136497  0.18589693  0.00116195    -0.11300
C1102       C  0.80750190  0.18176695  0.01239374     0.05800
C1103       C  0.81012099  0.16562932  0.52531397    -0.10100
C1104       C  0.79707959  0.15356251  0.52533758    -0.11700
C1105       C  0.78117497  0.15744163  0.01254364    -0.01500
C1106       C  0.77835355  0.17399328  0.00157001    -0.10600
C1107       C  0.82124663  0.19458457  0.01125928     0.05800
H1108       H  0.82240672  0.16215747  0.53451059     0.07800
H1109       H  0.79970282  0.14111348  0.53421265     0.11200
H1110       H  0.76609365  0.17775493  0.99271139     0.11500
H1111       H  0.78877180  0.19841113  0.99211167     0.07800
C1112       C  0.82355527  0.20475554  0.48484919    -0.11300
C1113       C  0.83524541  0.21808954  0.48502437    -0.10600
C1114       C  0.84460810  0.22160657  0.01175193    -0.01500
C1115       C  0.84291067  0.21093916  0.03756291    -0.11700
C1116       C  0.83141507  0.19752547  0.03728109    -0.10100
H1117       H  0.81603792  0.20260336  0.46429037     0.07800
H1118       H  0.83637979  0.22612272  0.46487516     0.11500
H1119       H  0.85020502  0.21326643  0.05833050     0.11200
H1120       H  0.82992374  0.18995145  0.05792895     0.07800
C1121       C  0.88155602  0.29693550  0.09382970    -0.11300
C1122       C  0.86912688  0.29666578  0.11682208     0.05800
C1123       C  0.85589282  0.28492034  0.11483766    -0.10100
C1124       C  0.85517615  0.27343721  0.09043457    -0.11700
C1125       C  0.86773680  0.27348365  0.06737784    -0.01500
C1126       C  0.88076639  0.28559980  0.06926105    -0.10600
C1127       C  0.86994837  0.30863716  0.14284252     0.05800
H1128       H  0.84615082  0.28453060  0.13237546     0.07800
H1129       H  0.84454471  0.26492227  0.08983650     0.11200
H1130       H  0.89041092  0.28625722  0.05156851     0.11500
H1131       H  0.89174755  0.30608377  0.09464438     0.07800
C1132       C  0.88522417  0.31110150  0.15877694    -0.11300
C1133       C  0.88599501  0.32231736  0.18355689    -0.10600
C1134       C  0.87149801  0.33128959  0.19277343    -0.01500
C1135       C  0.85622112  0.32883276  0.17674855    -0.11700
C1136       C  0.85545574  0.31758664  0.15199310    -0.10100
H1137       H  0.89651153  0.30418308  0.15228230     0.07800
H1138       H  0.89792805  0.32389895  0.19556323     0.11500
H1139       H  0.84488431  0.33567698  0.18319036     0.11200
H1140       H  0.84358739  0.31600547  0.13976412     0.07800
C1141       C  0.88318783  0.30602553  0.36103150    -0.11300
C1142       C  0.86709702  0.30121902  0.37180982     0.05800
C1143       C  0.85272080  0.30867769  0.35825979    -0.10100
C1144       C  0.85436213  0.32098060  0.33529321    -0.11700
C1145       C  0.87043180  0.32615909  0.32510419    -0.01500
C1146       C  0.88483882  0.31836578  0.33794389    -0.10600
C1147       C  0.86526871  0.28947772  0.39856806     0.05800
H1148       H  0.84013421  0.30511032  0.36563633     0.07800
H1149       H  0.84297403  0.32660853  0.32581923     0.11200
H1150       H  0.89740366  0.32204827  0.33062679     0.11500
H1151       H  0.89453276  0.30069504  0.37121119     0.07800
C1152       C  0.87596384  0.27534174  0.40240713    -0.11300
C1153       C  0.87508157  0.26538862  0.42923573    -0.10600
C1154       C  0.86360506  0.26950383  0.45276391    -0.01500
C1155       C  0.85235207  0.28306036  0.44814268    -0.11700
C1156       C  0.85320036  0.29293294  0.42150129    -0.10100
H1157       H  0.88524845  0.27220637  0.38497986     0.07800
H1158       H  0.88398006  0.25508775  0.43231277     0.11500
H1159       H  0.84327292  0.28645455  0.46578551     0.11200
H1160       H  0.84487435  0.30377546  0.41957670     0.07800
C1161       C  0.86602074  0.57472590  0.35217759    -0.11300
C1162       C  0.88108455  0.57053281  0.36790171     0.05800
C1163       C  0.89606999  0.57896417  0.35935719    -0.10100
C1164       C  0.89593941  0.59133505  0.33614254    -0.11700
C1165       C  0.88079989  0.59574761  0.32100530    -0.01500
C1166       C  0.86586599  0.58720826  0.32921544    -0.10600
C1167       C  0.88107519  0.55767887  0.39337395     0.05800
H1168       H  0.90788573  0.57633736  0.37111286     0.07800
H1169       H  0.90766556  0.59770077  0.33051386     0.11200
H1170       H  0.85399065  0.59018007  0.31789935     0.11500
H1171       H  0.85428556  0.56830559  0.35745620     0.07800
C1172       C  0.86693754  0.55590170  0.41287255    -0.11300
C1173       C  0.86684918  0.54388709  0.43664222    -0.10600
C1174       C  0.88099082  0.53348060  0.44197064    -0.01500
C1175       C  0.89520168  0.53530582  0.42280482    -0.11700
C1176       C  0.89519930  0.54714787  0.39868120    -0.10100
H1177       H  0.85596072  0.56397245  0.41013301     0.07800
H1178       H  0.85575317  0.54290843  0.45116227     0.11500
H1179       H  0.90624524  0.52737432  0.42613670     0.11200
H1180       H  0.90621457  0.54786085  0.38394365     0.07800
C1181       C  0.89470235  0.57788209  0.16084776    -0.11300
C1182       C  0.88043428  0.57550012  0.14187137     0.05800
C1183       C  0.86617205  0.58588728  0.14632699    -0.10100
C1184       C  0.86602764  0.59803947  0.16972179    -0.11700
C1185       C  0.88023427  0.60023728  0.18881084    -0.01500
C1186       C  0.89464689  0.59020812  0.18389326    -0.10600
C1187       C  0.88032239  0.56199010  0.11804073     0.05800
H1188       H  0.85511077  0.58465668  0.13170484     0.07800
H1189       H  0.85482380  0.60576337  0.17280014     0.11200
H1190       H  0.90573948  0.59157764  0.19841851     0.11500
H1191       H  0.90579521  0.56994296  0.15844297     0.07800
C1192       C  0.89512178  0.55799837  0.10158974    -0.11300
C1193       C  0.89512187  0.54498979  0.07981144    -0.10600
C1194       C  0.88027346  0.53582556  0.07369731    -0.01500
C1195       C  0.86543840  0.53986498  0.08990494    -0.11700
C1196       C  0.86548456  0.55274030  0.11195479    -0.10100
H1197       H  0.90669633  0.56503790  0.10529127     0.07800
H1198       H  0.90672133  0.54223769  0.06751309     0.11500
H1199       H  0.85382827  0.53293000  0.08584241     0.11200
H1200       H  0.85395029  0.55523289  0.12460998     0.07800
C1201       C  0.81581281  0.82951779  0.98990818    -0.11300
C1202       C  0.81287303  0.81210981  0.99416101     0.05800
C1203       C  0.79613767  0.80611618  0.49254232    -0.10100
C1204       C  0.78263488  0.81735273  0.48855929    -0.11700
C1205       C  0.78553223  0.83482623  0.98596772    -0.01500
C1206       C  0.80225463  0.84076511  0.98591598    -0.10600
C1207       C  0.82708896  0.80023161  0.00077138     0.05800
H1208       H  0.79345156  0.79275115  0.49495581     0.07800
H1209       H  0.76981840  0.81247899  0.48882382     0.11200
H1210       H  0.80480903  0.85417371  0.98499935     0.11500
H1211       H  0.82853625  0.83455756  0.99119877     0.07800
C1212       C  0.84250143  0.80162426  0.98482505    -0.11300
C1213       C  0.85525680  0.78954393  0.98902749    -0.10600
C1214       C  0.85295929  0.77599260  0.00952146    -0.01500
C1215       C  0.83799122  0.77499220  0.52665501    -0.11700
C1216       C  0.82515757  0.78701853  0.52234709    -0.10100
H1217       H  0.84436402  0.81153848  0.96792922     0.07800
H1218       H  0.86659901  0.79025556  0.97507086     0.11500
H1219       H  0.83586257  0.76440230  0.54204016     0.11200
H1220       H  0.81354877  0.78575278  0.53538032     0.07800
C1221       C  0.93947219  0.77226007  0.50867518    -0.11300
C1222       C  0.93759730  0.78862078  0.02064574     0.05800
C1223       C  0.92183465  0.79350317  0.03273630    -0.10100
C1224       C  0.90793928  0.78251008  0.03127522    -0.11700
C1225       C  0.90963008  0.76635941  0.01803979    -0.01500
C1226       C  0.92572296  0.76119685  0.50771938    -0.10600
C1227       C  0.95185463  0.80077000  0.01911325     0.05800
H1228       H  0.92008021  0.80610251  0.04202267     0.07800
H1229       H  0.89574933  0.78700258  0.03913887     0.11200
H1230       H  0.92767715  0.74868186  0.49824136     0.11500
H1231       H  0.95157171  0.76809453  0.49973971     0.07800
C1232       C  0.95660258  0.81022414  0.04511983    -0.11300
C1233       C  0.96982504  0.82194805  0.04328177    -0.10600
C1234       C  0.97837598  0.82465716  0.01524439    -0.01500
C1235       C  0.97367067  0.81508190  0.98929169    -0.11700
C1236       C  0.96062273  0.80318501  0.99127246    -0.10100
H1237       H  0.95010465  0.80849592  0.56688221     0.07800
H1238       H  0.97313162  0.82912439  0.06370620     0.11500
H1239       H  0.98000350  0.81684653  0.96739056     0.11200
H1240       H  0.95710913  0.79611757  0.97082615     0.07800
C1241       C  0.88782896  0.69872870  0.43147016    -0.11300
C1242       C  0.87838644  0.70180393  0.40460341     0.05800
C1243       C  0.86849647  0.71650925  0.40267580    -0.10100
C1244       C  0.86771680  0.72777636  0.42737942    -0.11700
C1245       C  0.87676724  0.72453739  0.45482967    -0.01500
C1246       C  0.88712143  0.71002379  0.45616312    -0.10600
C1247       C  0.87870522  0.68969208  0.37863952     0.05800
H1248       H  0.86147681  0.71940164  0.38181945     0.07800
H1249       H  0.86024478  0.73904962  0.42416397     0.11200
H1250       H  0.89459466  0.70734942  0.47658972     0.11500
H1251       H  0.89556678  0.68746362  0.43356506     0.07800
C1252       C  0.89402054  0.68249795  0.36877114    -0.11300
C1253       C  0.89423728  0.67120470  0.34400388    -0.10600
C1254       C  0.87912092  0.66681353  0.32882394    -0.01500
C1255       C  0.86380459  0.67393138  0.33888265    -0.11700
C1256       C  0.86361030  0.68529319  0.36348494    -0.10100
H1257       H  0.90584851  0.68579595  0.37992426     0.07800
H1258       H  0.90623363  0.66587802  0.33682223     0.11500
H1259       H  0.85195234  0.67077089  0.32768649     0.11200
H1260       H  0.85160805  0.69050825  0.37091045     0.07800
C1261       C  0.86048816  0.70799141  0.10278569    -0.11300
C1262       C  0.87394295  0.70957802  0.12389314     0.05800
C1263       C  0.88632097  0.72204748  0.11841860    -0.10100
C1264       C  0.88564708  0.73212391  0.09172134    -0.11700
C1265       C  0.87273371  0.72972440  0.06986588    -0.01500
C1266       C  0.85993699  0.71788895  0.07607596    -0.10600
C1267       C  0.87544949  0.69750186  0.15026787     0.05800
H1268       H  0.89673952  0.72371747  0.13440741     0.07800
H1269       H  0.89575018  0.74104410  0.08725030     0.11200
H1270       H  0.84986821  0.71578147  0.05950201     0.11500
H1271       H  0.85082515  0.69845554  0.10605529     0.07800
C1272       C  0.86098771  0.69230453  0.16656386    -0.11300
C1273       C  0.86209168  0.67979694  0.18935496    -0.10600
C1274       C  0.87769841  0.67214250  0.19655295    -0.01500
C1275       C  0.89226488  0.67765458  0.18089132    -0.11700
C1276       C  0.89114961  0.69017619  0.15800112    -0.10100
H1277       H  0.84874012  0.69782221  0.16148591     0.07800
H1278       H  0.85063136  0.67599064  0.20112153     0.11500
H1279       H  0.90447425  0.67200422  0.18578379     0.11200
H1280       H  0.90249842  0.69370463  0.14561223     0.07800
C1281       C  0.87645720  0.73641216  0.98248198     0.86000
C1282       C  0.86348052  0.75090801  0.98218253    -0.54200
C1283       C  0.86426086  0.76116595  0.50738267     0.08900
C1284       C  0.87792030  0.75599130  0.53115278     0.19900
C1285       C  0.89353695  0.74519094  0.98694966    -0.54900
C1286       C  0.89450133  0.75554420  0.51219304     0.09000
C1287       C  0.87310319  0.72721048  0.01296689    -0.54500
C1288       C  0.87404501  0.73723466  0.53854411     0.09600
H1289       H  0.85417553  0.75312476  0.96425382     0.14100
H1290       H  0.87836321  0.76421945  0.55188342    -0.00100
H1291       H  0.90371280  0.74383940  0.97033779     0.14400
H1292       H  0.87078440  0.71368007  0.51429616     0.14200
O1293       O  0.89291824  0.65240787  0.72865496    -0.74900
O1294       O  0.89433219  0.61598364  0.78779030    -0.74900
O1295       O  0.89396330  0.61811146  0.72526712    -0.75000
O1296       O  0.89345610  0.65013255  0.79127522    -0.75000
O1297       O  0.86526409  0.64912020  0.79209009    -0.75000
O1298       O  0.86573967  0.61770584  0.72497609    -0.74900
O1299       O  0.86615273  0.61496949  0.78747134    -0.74900
O1300       O  0.86473537  0.65181673  0.72983899    -0.75000
Ni1301     Ni  0.89467510  0.63419332  0.75819560     1.25400
Ni1302     Ni  0.86448149  0.63336847  0.75860191     1.25400
C1303       C  0.87853923  0.65816057  0.71953928     0.87300
C1304       C  0.88043464  0.60950688  0.79751344     0.87200
C1305       C  0.87995667  0.61266224  0.71416717     0.87200
C1306       C  0.87928745  0.65479482  0.80278272     0.87400
C1307       C  0.86748197  0.26158925  0.53979264     0.86000
C1308       C  0.85446871  0.24715086  0.53968933    -0.54200
C1309       C  0.85508327  0.23711534  0.51406949     0.08900
C1310       C  0.86857628  0.24262448  0.99035086     0.19900
C1311       C  0.88445983  0.25254263  0.53502980    -0.54900
C1312       C  0.88520803  0.24261979  0.50921238     0.09000
C1313       C  0.86427852  0.27120467  0.50979731    -0.54500
C1314       C  0.86487640  0.26152451  0.98377800     0.09600
H1315       H  0.84586424  0.24436988  0.55839752     0.14100
H1316       H  0.86895605  0.23463737  0.96930445    -0.00100
H1317       H  0.89475943  0.25344774  0.55158651     0.14400
H1318       H  0.86238946  0.28482370  0.50923736     0.14200
O1319       O  0.88658643  0.34479384  0.79259441    -0.74900
O1320       O  0.88957895  0.38116207  0.73356947    -0.74900
O1321       O  0.88955567  0.37886171  0.79619680    -0.75000
O1322       O  0.88684304  0.34709740  0.73015383    -0.75000
O1323       O  0.85874744  0.34975879  0.72946087    -0.75000
O1324       O  0.86141375  0.38097334  0.79658621    -0.74900
O1325       O  0.86149513  0.38371560  0.73414768    -0.74900
O1326       O  0.85848024  0.34708561  0.79175434    -0.75000
Ni1327     Ni  0.88915163  0.36290657  0.76313490     1.25400
Ni1328     Ni  0.85904718  0.36547725  0.76298854     1.25400
C1329       C  0.87195880  0.33995356  0.80193506     0.87300
C1330       C  0.87597281  0.38835745  0.72391949     0.87200
C1331       C  0.87593250  0.38499339  0.80757722     0.87200
C1332       C  0.87238769  0.34327105  0.71874824     0.87400
O1333       O  0.86658305  0.51582639  0.97831183    -0.74900
O1334       O  0.86573220  0.48187829  0.54177452    -0.74900
O1335       O  0.86615020  0.51618109  0.54083413    -0.75000
O1336       O  0.86619145  0.48157951  0.97934741    -0.75000
O1337       O  0.89438465  0.48041320  0.98145298    -0.75000
O1338       O  0.89436448  0.51647620  0.54023880    -0.74900
O1339       O  0.89392085  0.48222903  0.54383338    -0.74900
O1340       O  0.89476829  0.51469468  0.97764343    -0.75000
Ni1341     Ni  0.86516619  0.49888318  0.51003908     1.25400
Ni1342     Ni  0.89537301  0.49845225  0.51081692     1.25400
C1343       C  0.88079147  0.52072766  0.96720321     0.87300
C1344       C  0.87967718  0.47654183  0.55348712     0.87200
C1345       C  0.88026302  0.52216177  0.55048686     0.87200
C1346       C  0.88026040  0.47513240  0.97059560     0.87400
C1347       C  0.74825149  0.86010707  0.51835279     0.86000
C1348       C  0.76069250  0.84531762  0.51446261    -0.54200
C1349       C  0.77122541  0.84681083  0.48971825     0.08900
C1350       C  0.76814652  0.86299381  0.97038366     0.19900
C1351       C  0.75953305  0.87584581  0.51892183    -0.54900
C1352       C  0.76990068  0.87767842  0.49385645     0.09000
C1353       C  0.73884243  0.86102568  0.48756298    -0.54500
C1354       C  0.74904173  0.86268114  0.96241423     0.09600
H1355       H  0.76197312  0.83480868  0.53028002     0.14100
H1356       H  0.77637044  0.86405871  0.94977165    -0.00100
H1357       H  0.75942247  0.88455759  0.53826385     0.16000
H1358       H  0.72511768  0.86070555  0.48581919     0.14200
O1359       O  0.62760106  0.87513179  0.71193361    -0.74900
O1360       O  0.66355982  0.87626078  0.77125078    -0.74900
O1361       O  0.66169735  0.87547955  0.70895398    -0.75000
O1362       O  0.62932564  0.87585840  0.77422440    -0.75000
O1363       O  0.62998978  0.84767342  0.77605716    -0.75000
O1364       O  0.66166222  0.84727334  0.70953674    -0.74900
O1365       O  0.66426593  0.84808447  0.77202891    -0.74900
O1366       O  0.62744488  0.84695048  0.71358671    -0.75000
Ni1367     Ni  0.64553568  0.87666436  0.74159160     1.25400
Ni1368     Ni  0.64586380  0.84647362  0.74286905     1.25400
C1369       C  0.62158884  0.86092594  0.70284169     0.87300
C1370       C  0.66994902  0.86241134  0.78137806     0.87200
C1371       C  0.66686569  0.86130531  0.69820730     0.87200
C1372       C  0.62429098  0.86185233  0.78589086     0.87400
C1373       C  0.27165932  0.86885173  0.95794530     0.86000
C1374       C  0.25880166  0.85436660  0.96120454    -0.54200
C1375       C  0.24956811  0.85486064  0.48779000     0.08900
C1376       C  0.25428715  0.86968306  0.50933890     0.19900
C1377       C  0.26114192  0.88493743  0.96211759    -0.54900
C1378       C  0.25189444  0.88540262  0.48866236     0.09000
C1379       C  0.28252173  0.86750175  0.98714629    -0.54500
C1380       C  0.27362559  0.86794796  0.51410265     0.09600
H1381       H  0.25694023  0.84434124  0.94458774     0.14100
H1382       H  0.24681522  0.87006163  0.53100553    -0.00100
H1383       H  0.26045245  0.89482505  0.94471388     0.14400
H1384       H  0.29622719  0.86639021  0.48647279     0.14200
O1385       O  0.35862312  0.88132411  0.70648496    -0.74900
O1386       O  0.39364142  0.88069444  0.76841934    -0.74900
O1387       O  0.39298059  0.88040549  0.70582337    -0.75000
O1388       O  0.35943455  0.88181602  0.76886214    -0.75000
O1389       O  0.35890617  0.85362381  0.77008525    -0.75000
O1390       O  0.39190109  0.85221111  0.70569959    -0.74900
O1391       O  0.39318925  0.85250236  0.76827652    -0.74900
O1392       O  0.35771014  0.85315982  0.70778390    -0.75000
Ni1393     Ni  0.37621743  0.88206301  0.73735436     1.25400
Ni1394     Ni  0.37541426  0.85187406  0.73799571     1.25400
C1395       C  0.35227906  0.86728781  0.69709323     0.87300
C1396       C  0.39917176  0.86646874  0.77862249     0.87200
C1397       C  0.39788845  0.86611868  0.69517460     0.87200
C1398       C  0.35361443  0.86798009  0.77987945     0.87400
O1399       O  0.49373574  0.84991224  0.95789275    -0.74900
O1400       O  0.52724194  0.84888212  0.52210360    -0.74900
O1401       O  0.49302597  0.84968622  0.52036355    -0.75000
O1402       O  0.52797620  0.84920466  0.95955523    -0.75000
O1403       O  0.52910109  0.87738116  0.96098624    -0.75000
O1404       O  0.49309709  0.87789494  0.51967472    -0.74900
O1405       O  0.52728413  0.87706832  0.52353485    -0.74900
O1406       O  0.49486781  0.87808326  0.95720895    -0.75000
Ni1407     Ni  0.51048434  0.84842520  0.48995603     1.25400
Ni1408     Ni  0.51111798  0.87861804  0.49035827     1.25400
C1409       C  0.48882421  0.86413865  0.94679164     0.87300
C1410       C  0.53263296  0.86278051  0.53375080     0.87200
C1411       C  0.48723115  0.86388399  0.52992915     0.87200
C1412       C  0.53434139  0.86321329  0.95030372     0.87400
C1413       C  0.74574328  0.12953245  0.97855729     0.86000
C1414       C  0.75777588  0.14464731  0.98199809    -0.54200
C1415       C  0.76805756  0.14409810  0.50741492     0.08900
C1416       C  0.76536415  0.12801068  0.52734233     0.19900
C1417       C  0.75753596  0.11418854  0.97906780    -0.54900
C1418       C  0.76777068  0.11304774  0.50454702     0.09000
C1419       C  0.73615184  0.12874061  0.00911018    -0.54500
C1420       C  0.74619750  0.12783858  0.53466332     0.09600
H1421       H  0.75901033  0.15458421  0.96508199     0.14100
H1422       H  0.77341644  0.12734272  0.54831404    -0.00100
H1423       H  0.75785648  0.10517893  0.96018550     0.14400
H1424       H  0.72241351  0.12861657  0.51041171     0.14200
O1425       O  0.66046706  0.11229237  0.72481375    -0.74900
O1426       O  0.62459034  0.11229865  0.78462182    -0.74900
O1427       O  0.62604657  0.11219183  0.72179576    -0.75000
O1428       O  0.65873566  0.11246789  0.78734360    -0.75000
O1429       O  0.65810815  0.14066554  0.78758988    -0.75000
O1430       O  0.62645212  0.14038579  0.72080782    -0.74900
O1431       O  0.62396543  0.14048500  0.78329882    -0.74900
O1432       O  0.66065457  0.14047457  0.72503442    -0.75000
Ni1433     Ni  0.64245638  0.11130477  0.75458601     1.25400
Ni1434     Ni  0.64229497  0.14149356  0.75414813     1.25400
C1435       C  0.66658367  0.12636274  0.71515376     0.87300
C1436       C  0.61845689  0.12640378  0.79405986     0.87200
C1437       C  0.62091896  0.12627745  0.71037644     0.87200
C1438       C  0.66357714  0.12664589  0.79863117     0.87400
C1439       C  0.27235641  0.13977058  0.52837819     0.86000
C1440       C  0.25863737  0.15357175  0.52885970    -0.54200
C1441       C  0.24735281  0.15274507  0.50493460     0.08900
C1442       C  0.25082650  0.13795186  0.98245219     0.19900
C1443       C  0.26224650  0.12323987  0.52731885    -0.54900
C1444       C  0.25088869  0.12222550  0.50359350     0.09000
C1445       C  0.28051621  0.14135054  0.49666304    -0.54500
C1446       C  0.26946245  0.14042030  0.97252922     0.09600
H1447       H  0.25699794  0.16261297  0.54730899     0.14100
H1448       H  0.24175319  0.13719592  0.96289258    -0.00100
H1449       H  0.26357589  0.11337329  0.54463450     0.14400
H1450       H  0.29407497  0.14290372  0.49353777     0.14200
O1451       O  0.38999134  0.11742286  0.72737622    -0.74900
O1452       O  0.35248080  0.11962362  0.78361545    -0.74900
O1453       O  0.35612799  0.11963150  0.72131072    -0.75000
O1454       O  0.38662473  0.11731356  0.78980199    -0.75000
O1455       O  0.38776684  0.14549881  0.79126103    -0.75000
O1456       O  0.35861379  0.14772794  0.72093789    -0.74900
O1457       O  0.35391308  0.14777694  0.78278899    -0.74900
O1458       O  0.39233927  0.14550651  0.72909015    -0.75000
Ni1459     Ni  0.37124074  0.11748435  0.75559195     1.25400
Ni1460     Ni  0.37322598  0.14761919  0.75609418     1.25400
C1461       C  0.39718773  0.13114144  0.71857142     0.87300
C1462       C  0.34690092  0.13411577  0.79226494     0.87200
C1463       C  0.35267566  0.13405442  0.70936661     0.87200
C1464       C  0.39215064  0.13102304  0.80192889     0.87400
O1465       O  0.49040661  0.14324148  0.53713578    -0.74900
O1466       O  0.52367631  0.14254304  0.97250393    -0.74900
O1467       O  0.48927346  0.14302132  0.97467212    -0.75000
O1468       O  0.52473280  0.14279942  0.53515458    -0.75000
O1469       O  0.52480851  0.11459805  0.53456695    -0.75000
O1470       O  0.48853849  0.11484218  0.97584002    -0.74900
O1471       O  0.52287098  0.11437132  0.97214758    -0.74900
O1472       O  0.49056544  0.11505455  0.53825086    -0.75000
Ni1473     Ni  0.50704159  0.14390558  0.50482208     1.25400
Ni1474     Ni  0.50668384  0.11372280  0.50519033     1.25400
C1475       C  0.48506270  0.12924670  0.54850585     0.87300
C1476       C  0.52878906  0.12833127  0.96162610     0.87200
C1477       C  0.48287877  0.12897631  0.96559814     0.87200
C1478       C  0.53066749  0.12864047  0.54476679     0.87400
C1479       C  0.15255992  0.73638121  0.54032292     0.86000
C1480       C  0.16724521  0.74912940  0.53786470    -0.54200
C1481       C  0.16627372  0.75957841  0.51265848     0.08900
C1482       C  0.15067706  0.75615090  0.99196329     0.19900
C1483       C  0.13667808  0.74751284  0.53933001    -0.54900
C1484       C  0.13566891  0.75792821  0.51429816     0.09000
C1485       C  0.15274833  0.72696193  0.50954434    -0.54500
C1486       C  0.15176580  0.73713604  0.98420226     0.09600
H1487       H  0.17699488  0.75070784  0.55515436     0.14100
H1488       H  0.14980614  0.76440479  0.97128482    -0.00100
H1489       H  0.12722901  0.74750133  0.55751802     0.14400
H1490       H  0.15350105  0.71325712  0.50795245     0.14200
O1491       O  0.12681306  0.61790735  0.73582608    -0.74900
O1492       O  0.12906139  0.65442445  0.79414489    -0.74900
O1493       O  0.12975692  0.65189922  0.73178261    -0.75000
O1494       O  0.12609101  0.62024118  0.79831349    -0.75000
O1495       O  0.15424185  0.61855198  0.80073048    -0.75000
O1496       O  0.15780675  0.64881391  0.73225541    -0.74900
O1497       O  0.15720740  0.65248908  0.79423431    -0.74900
O1498       O  0.15483529  0.61488725  0.73849983    -0.75000
Ni1499     Ni  0.12692035  0.63619757  0.76500854     1.25400
Ni1500     Ni  0.15701469  0.63359008  0.76651708     1.25400
C1501       C  0.14045261  0.61040557  0.72745101     0.87300
C1502       C  0.14356121  0.65964772  0.80347616     0.87200
C1503       C  0.14438042  0.65542821  0.72080728     0.87200
C1504       C  0.13959481  0.61424929  0.81060657     0.87400
C1505       C  0.14307842  0.26385492  0.98776824     0.86000
C1506       C  0.15551188  0.24888527  0.98727265    -0.54200
C1507       C  0.15442685  0.23850893  0.51234925     0.08900
C1508       C  0.14101839  0.24407670  0.53607458     0.19900
C1509       C  0.12575302  0.25538080  0.99167401    -0.54900
C1510       C  0.12454760  0.24494141  0.51678807     0.09000
C1511       C  0.14642941  0.27281281  0.01833972    -0.54500
C1512       C  0.14539060  0.26268026  0.54374271     0.09600
H1513       H  0.16405685  0.24600823  0.96850741     0.14100
H1514       H  0.14026730  0.23574715  0.55666200    -0.00100
H1515       H  0.11569665  0.25675309  0.97472457     0.14400
H1516       H  0.14899227  0.28630019  0.51974680     0.14200
O1517       O  0.12636222  0.38295868  0.79238874    -0.74900
O1518       O  0.12877471  0.34684678  0.73321898    -0.74900
O1519       O  0.12839576  0.34897131  0.79556058    -0.75000
O1520       O  0.12662619  0.38106237  0.72986616    -0.75000
O1521       O  0.15481916  0.38232590  0.72947289    -0.75000
O1522       O  0.15653058  0.35104663  0.79679165    -0.74900
O1523       O  0.15693382  0.34822083  0.73443000    -0.74900
O1524       O  0.15449167  0.38505800  0.79192087    -0.75000
Ni1525     Ni  0.12654341  0.36490675  0.76268135     1.25400
Ni1526     Ni  0.15670056  0.36672770  0.76312377     1.25400
C1527       C  0.14005037  0.38985118  0.80217957     0.87300
C1528       C  0.14327351  0.34144480  0.72425863     0.87200
C1529       C  0.14270116  0.34491954  0.80737244     0.87200
C1530       C  0.14041295  0.38694600  0.71872413     0.87400
O1531       O  0.15088200  0.48357665  0.98253733    -0.74900
O1532       O  0.15098060  0.51706286  0.54639774    -0.74900
O1533       O  0.15105826  0.48295030  0.54489105    -0.75000
O1534       O  0.15070395  0.51781301  0.98378832    -0.75000
O1535       O  0.12249706  0.51829880  0.98498500    -0.75000
O1536       O  0.12283738  0.48227477  0.54404504    -0.74900
O1537       O  0.12279453  0.51653229  0.54764906    -0.74900
O1538       O  0.12267882  0.48399475  0.98161144    -0.75000
Ni1539     Ni  0.15189433  0.50037260  0.51436907     1.25400
Ni1540     Ni  0.12168223  0.50029107  0.51456477     1.25400
C1541       C  0.13680815  0.47823942  0.97147812     0.87300
C1542       C  0.13695891  0.52213020  0.55800781     0.87200
C1543       C  0.13702010  0.47678286  0.55437772     0.87200
C1544       C  0.13655196  0.52385902  0.97435640     0.87400
O1545       O  0.15965904  0.02117610  0.97490669    -0.74900
O1546       O  0.12723501  0.98513953  0.97501992    -0.74900
O1547       O  0.12537501  0.01944991  0.97549046    -0.75000
O1548       O  0.16147586  0.98679390  0.97480992    -0.75000
O1549       O  0.16134940  0.98627057  0.52623042    -0.75000
O1550       O  0.12620745  0.01968096  0.52690385    -0.74900
O1551       O  0.12719189  0.98532457  0.52644251    -0.74900
O1552       O  0.16049551  0.02059153  0.52632204    -0.75000
Ni1553     Ni  0.14343733  0.00315516  0.97321664     1.25400
Ni1554     Ni  0.14381404  0.00297933  0.52828216     1.25400
C1555       C  0.16549317  0.02678950  0.50055186     0.87300
C1556       C  0.12187230  0.97924554  0.50075563     0.87200
C1557       C  0.11994499  0.02507564  0.50141693     0.87200
C1558       C  0.16715404  0.98090943  0.50045203     0.87400
O1559       O  0.02463189  0.12237760  0.97881387    -0.74900
O1560       O  0.98940545  0.15559914  0.97662207    -0.74900
O1561       O  0.02375495  0.15662966  0.98109260    -0.75000
O1562       O  0.99037415  0.12135262  0.97507518    -0.75000
O1563       O  0.98833950  0.12116392  0.52636855    -0.75000
O1564       O  0.02248889  0.15500065  0.53239535    -0.74900
O1565       O  0.98822769  0.15538107  0.52801925    -0.74900
O1566       O  0.02256681  0.12081692  0.53001290    -0.75000
Ni1567     Ni  0.00710548  0.13904509  0.97606025     1.25400
Ni1568     Ni  0.00533509  0.13807460  0.53100590     1.25400
C1569       C  0.02935867  0.11598649  0.50460877     0.87300
C1570       C  0.98297519  0.16098207  0.50187446     0.87200
C1571       C  0.02883862  0.16137926  0.50788974     0.87200
C1572       C  0.98378803  0.11552643  0.49994924     0.87400
O1573       O  0.99539593  0.87651993  0.98254511    -0.74900
O1574       O  0.03150944  0.84445567  0.98402176    -0.74900
O1575       O  0.99717040  0.84238383  0.98634017    -0.75000
O1576       O  0.02951280  0.87851221  0.98080226    -0.75000
O1577       O  0.03110984  0.87925280  0.53218760    -0.75000
O1578       O  0.99741918  0.84466611  0.53760286    -0.74900
O1579       O  0.03181526  0.84515927  0.53546975    -0.74900
O1580       O  0.99681608  0.87892388  0.53374451    -0.75000
Ni1581     Ni  0.01334903  0.86036942  0.98161739     1.25400
Ni1582     Ni  0.01429642  0.86203066  0.53660530     1.25400
C1583       C  0.99036227  0.88329680  0.50771969     0.87300
C1584       C  0.03776618  0.83964508  0.50985164     0.87200
C1585       C  0.99170196  0.83779533  0.51292981     0.87200
C1586       C  0.03579998  0.88465954  0.50569123     0.87400
O1587       O  0.86071371  0.97911154  0.97263406    -0.74900
O1588       O  0.89349423  0.01445170  0.97372485    -0.74900
O1589       O  0.89494886  0.98012821  0.97259758    -0.75000
O1590       O  0.85939892  0.01353283  0.97476623    -0.75000
O1591       O  0.86019962  0.01296086  0.52616258    -0.75000
O1592       O  0.89458095  0.97922050  0.52400149    -0.74900
O1593       O  0.89433225  0.01348949  0.52512882    -0.74900
O1594       O  0.86042140  0.97857706  0.52404679    -0.75000
Ni1595     Ni  0.87710984  0.99681504  0.97158865     1.25400
Ni1596     Ni  0.87738305  0.99602584  0.52665078     1.25400
C1597       C  0.85519511  0.97289977  0.49795084     0.87300
C1598       C  0.89927515  0.01989458  0.49945228     0.87200
C1599       C  0.90048357  0.97406452  0.49820839     0.87200
C1600       C  0.85426090  0.01904548  0.50101292     0.87400
C1601       C  0.96205221  0.92002602  0.52980174    -0.11300
C1602       C  0.95248605  0.92239614  0.50267351     0.05800
C1603       C  0.95544222  0.91168025  0.97739427    -0.10100
C1604       C  0.96766091  0.89892936  0.97917663    -0.11700
C1605       C  0.97712009  0.89650828  0.50635540    -0.01500
C1606       C  0.97416393  0.90716032  0.53168234    -0.10600
C1607       C  0.93920355  0.93571324  0.50107923     0.05800
H1608       H  0.94812401  0.91295937  0.95636283     0.07800
H1609       H  0.96961502  0.89087829  0.95927996     0.11200
H1610       H  0.98139350  0.90572972  0.55279478     0.11500
H1611       H  0.96031223  0.92824043  0.54952928     0.07800
C1612       C  0.92914494  0.93913598  0.52700499    -0.11300
C1613       C  0.91665002  0.95157710  0.52584464    -0.10600
C1614       C  0.91373801  0.96083574  0.49863638    -0.01500
C1615       C  0.92362253  0.95735479  0.97251019    -0.11700
C1616       C  0.93629741  0.94495608  0.97376038    -0.10100
H1617       H  0.93074965  0.93202175  0.54817318     0.07800
H1618       H  0.90912844  0.95381839  0.54630704     0.11500
H1619       H  0.92171531  0.96435240  0.95128677     0.11200
H1620       H  0.94395986  0.94276718  0.95346845     0.07800
C1621       C  0.93351047  0.05047045  0.52445127    -0.11300
C1622       C  0.93500641  0.06092086  0.49826427     0.05800
C1623       C  0.92470191  0.05762948  0.97249426    -0.10100
C1624       C  0.91320854  0.04421871  0.97289456    -0.11700
C1625       C  0.91163199  0.03390208  0.49917630    -0.01500
C1626       C  0.92185986  0.03718045  0.52498008    -0.10600
C1627       C  0.94714755  0.07527654  0.49804788     0.05800
H1628       H  0.92531365  0.06558041  0.95217300     0.07800
H1629       H  0.90535990  0.04208818  0.95273992     0.11200
H1630       H  0.92099659  0.02935384  0.54544074     0.11500
H1631       H  0.94147449  0.05244930  0.54449029     0.07800
C1632       C  0.94981168  0.08483698  0.52493006    -0.11300
C1633       C  0.96156048  0.09798169  0.52527373    -0.10600
C1634       C  0.97085074  0.10203295  0.49866338    -0.01500
C1635       C  0.96794239  0.09278898  0.47149260    -0.11700
C1636       C  0.95624576  0.07949138  0.47121530    -0.10100
H1637       H  0.94274370  0.08222189  0.54576742     0.07800
H1638       H  0.96336382  0.10498287  0.54650732     0.11500
H1639       H  0.97495147  0.09558996  0.95066392     0.11200
H1640       H  0.95461304  0.07227881  0.95018926     0.07800
C1641       C  0.06442861  0.08678681  0.97741975    -0.11300
C1642       C  0.06791191  0.07715392  0.50401395     0.05800
C1643       C  0.05872742  0.08069596  0.53110336    -0.10100
C1644       C  0.04638746  0.09343768  0.53150423    -0.11700
C1645       C  0.04277723  0.10282668  0.50474386    -0.01500
C1646       C  0.05197719  0.09936770  0.97773776    -0.10600
C1647       C  0.08106840  0.06354583  0.50344076     0.05800
H1648       H  0.06082338  0.07342213  0.55193425     0.07800
H1649       H  0.03948302  0.09574038  0.55265271     0.11200
H1650       H  0.04962962  0.10646268  0.95676656     0.11500
H1651       H  0.07145492  0.08476777  0.95632787     0.07800
C1652       C  0.08387988  0.05389628  0.47658578    -0.11300
C1653       C  0.09647968  0.04142598  0.47585902    -0.10600
C1654       C  0.10641793  0.03810274  0.50209841    -0.01500
C1655       C  0.10346775  0.04751936  0.52906252    -0.11700
C1656       C  0.09105600  0.06014964  0.52966653    -0.10100
H1657       H  0.07624001  0.05584013  0.45612050     0.07800
H1658       H  0.09834226  0.03428611  0.45480947     0.11500
H1659       H  0.11099293  0.04535294  0.54961786     0.11200
H1660       H  0.08954093  0.06746337  0.55058673     0.07800
C1661       C  0.06094606  0.92255295  0.97834444    -0.11300
C1662       C  0.07315759  0.92421800  0.50191749     0.05800
C1663       C  0.07303740  0.91244103  0.52632427    -0.10100
C1664       C  0.06082747  0.89969765  0.52756110    -0.11700
C1665       C  0.04870768  0.89810700  0.50403164    -0.01500
C1666       C  0.04897985  0.90951782  0.97922937    -0.10600
C1667       C  0.08576475  0.93828378  0.50142458     0.05800
H1668       H  0.08245403  0.91293911  0.54447636     0.07800
H1669       H  0.06101690  0.89090929  0.54675622     0.11200
H1670       H  0.03967097  0.90861382  0.96090935     0.11500
H1671       H  0.06036736  0.93150423  0.95946653     0.07800
C1672       C  0.09195879  0.94476296  0.97335708    -0.11300
C1673       C  0.10359568  0.95810110  0.97308661    -0.10600
C1674       C  0.10945782  0.96519341  0.50087089    -0.01500
C1675       C  0.10340992  0.95865783  0.52888596    -0.11700
C1676       C  0.09165295  0.94547488  0.52916619    -0.10100
H1677       H  0.08801904  0.93940850  0.95151477     0.07800
H1678       H  0.10807173  0.96278279  0.95107842     0.11500
H1679       H  0.10764798  0.96382863  0.55071432     0.11200
H1680       H  0.08697366  0.94116115  0.55125548     0.07800
C1681       C  0.15223002  0.44408086  0.91678568    -0.11300
C1682       C  0.13764624  0.44060504  0.89917989     0.05800
C1683       C  0.12266821  0.44952732  0.90598680    -0.10100
C1684       C  0.12232045  0.46161691  0.92960793    -0.11700
C1685       C  0.13698386  0.46523156  0.94678585    -0.01500
C1686       C  0.15192679  0.45629443  0.94012364    -0.10600
C1687       C  0.13811597  0.42780538  0.87381529     0.05800
H1688       H  0.11124646  0.44741182  0.89270146     0.07800
H1689       H  0.11062049  0.46832119  0.93409656     0.11200
H1690       H  0.16340528  0.45863206  0.95315049     0.11500
H1691       H  0.16389527  0.43723669  0.91279265     0.07800
C1692       C  0.15276615  0.42567022  0.85576588    -0.11300
C1693       C  0.15334638  0.41346969  0.83239424    -0.10600
C1694       C  0.13922026  0.40323241  0.82614580    -0.01500
C1695       C  0.12448798  0.40549435  0.84379743    -0.11700
C1696       C  0.12397327  0.41754718  0.86744811    -0.10100
H1697       H  0.16379366  0.43353354  0.85947553     0.07800
H1698       H  0.16486257  0.41210250  0.81911320     0.11500
H1699       H  0.11344617  0.39768085  0.83978679     0.11200
H1700       H  0.11257339  0.41857508  0.88112661     0.07800
C1701       C  0.15183460  0.44822087  0.61878388    -0.11300
C1702       C  0.13801453  0.43720148  0.62212163     0.05800
C1703       C  0.12378146  0.43934264  0.60295693    -0.10100
C1704       C  0.12337438  0.45229357  0.58101274    -0.11700
C1705       C  0.13726740  0.46319467  0.57762500    -0.01500
C1706       C  0.15150373  0.46101619  0.59664261    -0.10600
C1707       C  0.13841013  0.42375213  0.64593806     0.05800
H1708       H  0.11303090  0.43091247  0.60472917     0.07800
H1709       H  0.11229564  0.45364256  0.56643615     0.11200
H1710       H  0.16230870  0.46937368  0.59471373     0.11500
H1711       H  0.16282800  0.44712483  0.63363004     0.07800
C1712       C  0.15345065  0.41481694  0.65202368    -0.11300
C1713       C  0.15409074  0.40278813  0.67558147    -0.10600
C1714       C  0.13965163  0.39932123  0.69329422    -0.01500
C1715       C  0.12450738  0.40795385  0.68677877    -0.11700
C1716       C  0.12390911  0.42010217  0.66341545    -0.10100
H1717       H  0.16474352  0.41712553  0.63855281     0.07800
H1718       H  0.16588097  0.39617886  0.67988402     0.11500
H1719       H  0.11320011  0.40558690  0.70018529     0.11200
H1720       H  0.11220419  0.42693422  0.65956346     0.07800
C1721       C  0.06426939  0.18765919  0.54204825    -0.11300
C1722       C  0.06864193  0.19810396  0.51716258     0.05800
C1723       C  0.05978033  0.19652139  0.48914283    -0.10100
C1724       C  0.04686009  0.18455598  0.48596639    -0.11700
C1725       C  0.04239089  0.17416621  0.51094138    -0.01500
C1726       C  0.05116953  0.17591215  0.53906425    -0.10600
C1727       C  0.08254332  0.21051607  0.52019973     0.05800
H1728       H  0.06305799  0.20437020  0.96955324     0.07800
H1729       H  0.04032088  0.18349655  0.46405639     0.11200
H1730       H  0.04806724  0.16802775  0.55870066     0.11500
H1731       H  0.07089365  0.18870985  0.56388142     0.07800
C1732       C  0.08009485  0.22733180  0.01088694    -0.11300
C1733       C  0.09351070  0.23880347  0.01160526    -0.10600
C1734       C  0.10973861  0.23361966  0.52117851    -0.01500
C1735       C  0.11200736  0.21694457  0.53170143    -0.11700
C1736       C  0.09849256  0.20550964  0.53135678    -0.10100
H1737       H  0.06782364  0.23153244  0.00269088     0.07800
H1738       H  0.09126679  0.25164833  0.00390967     0.11500
H1739       H  0.12438111  0.21245747  0.53872317     0.11200
H1740       H  0.10067065  0.19255797  0.53854124     0.07800
C1741       C  0.13082864  0.29989330  0.93351094    -0.11300
C1742       C  0.14387957  0.29962585  0.91163450     0.05800
C1743       C  0.15706414  0.28788252  0.91491776    -0.10100
C1744       C  0.15703178  0.27631382  0.93920841    -0.11700
C1745       C  0.14368283  0.27613211  0.96074603    -0.01500
C1746       C  0.13083520  0.28840487  0.95793920    -0.10600
C1747       C  0.14362671  0.31137961  0.88514865     0.05800
H1748       H  0.16732433  0.28748100  0.89839523     0.07800
H1749       H  0.16772301  0.26789018  0.94094347     0.11200
H1750       H  0.12067936  0.28901034  0.97465871     0.11500
H1751       H  0.12068644  0.30908371  0.93184935     0.07800
C1752       C  0.12854162  0.31415131  0.86874859    -0.11300
C1753       C  0.12829438  0.32496335  0.84334075    -0.10600
C1754       C  0.14314229  0.33320446  0.83382439    -0.01500
C1755       C  0.15824768  0.33043861  0.85024002    -0.11700
C1756       C  0.15848276  0.31962149  0.87570375    -0.10100
H1757       H  0.11697708  0.30775240  0.87531363     0.07800
H1758       H  0.11646979  0.32680992  0.83109203     0.11500
H1759       H  0.16985060  0.33673759  0.84359233     0.11200
H1760       H  0.17023605  0.31782376  0.88820656     0.07800
C1761       C  0.16014361  0.29171960  0.60739762    -0.11300
C1762       C  0.14758179  0.28942819  0.62993518     0.05800
C1763       C  0.13556052  0.27645973  0.62553764    -0.10100
C1764       C  0.13555352  0.26673019  0.59840615    -0.11700
C1765       C  0.14747035  0.26990969  0.57515960    -0.01500
C1766       C  0.16009296  0.28207987  0.58043780    -0.10600
C1767       C  0.14640531  0.30146689  0.65640423     0.05800
H1768       H  0.12586593  0.27417261  0.64265078     0.07800
H1769       H  0.12564737  0.25747008  0.59480603     0.11200
H1770       H  0.16951119  0.28469763  0.56294756     0.11500
H1771       H  0.16950374  0.30163515  0.60970045     0.07800
C1772       C  0.16112759  0.30812966  0.67012117    -0.11300
C1773       C  0.16008992  0.32089916  0.69239960    -0.10600
C1774       C  0.14429612  0.32730127  0.70171796    -0.01500
C1775       C  0.12954513  0.32024983  0.68883699    -0.11700
C1776       C  0.13058605  0.30750999  0.66644021    -0.10100
H1777       H  0.17351669  0.30360952  0.66335985     0.07800
H1778       H  0.17171152  0.32590386  0.70203731     0.11500
H1779       H  0.11716923  0.32484391  0.69553182     0.11200
H1780       H  0.11898989  0.30287277  0.65612914     0.07800
C1781       C  0.12499017  0.58273457  0.66170286    -0.11300
C1782       C  0.13843321  0.57119402  0.65813121     0.05800
C1783       C  0.15239796  0.57246904  0.67829483    -0.10100
C1784       C  0.15303481  0.58511921  0.70089471    -0.11700
C1785       C  0.13960514  0.59663399  0.70426642    -0.01500
C1786       C  0.12551718  0.59519618  0.68460700    -0.10600
C1787       C  0.13804880  0.55822234  0.63301588     0.05800
H1788       H  0.16285083  0.56364924  0.67674956     0.07800
H1789       H  0.16401926  0.58583597  0.71584335     0.11200
H1790       H  0.11504775  0.60399701  0.68640589     0.11500
H1791       H  0.11418263  0.58243917  0.64631682     0.07800
C1792       C  0.12268699  0.55082154  0.62345710    -0.11300
C1793       C  0.12228628  0.53917740  0.59909623    -0.10600
C1794       C  0.13725240  0.53450430  0.58382364    -0.01500
C1795       C  0.15263206  0.54166413  0.59366727    -0.11700
C1796       C  0.15301908  0.55340404  0.61780851    -0.10100
H1797       H  0.11093339  0.55391380  0.63493804     0.07800
H1798       H  0.11024342  0.53377940  0.59232840     0.11500
H1799       H  0.16441467  0.53835268  0.58245807     0.11200
H1800       H  0.16505877  0.55897688  0.62404187     0.07800
C1801       C  0.12297942  0.57988797  0.86325965    -0.11300
C1802       C  0.13693422  0.57712498  0.88282927     0.05800
C1803       C  0.15140082  0.58728095  0.87938378    -0.10100
C1804       C  0.15213502  0.59952952  0.85622274    -0.11700
C1805       C  0.13834971  0.60201319  0.83622195    -0.01500
C1806       C  0.12365578  0.59227685  0.84024766    -0.10600
C1807       C  0.13666512  0.56340249  0.90618891     0.05800
H1808       H  0.16220742  0.58569953  0.89454328     0.07800
H1809       H  0.16353343  0.60702268  0.85388231     0.11200
H1810       H  0.11288025  0.59388678  0.82501858     0.11500
H1811       H  0.11172358  0.57215384  0.86516658     0.07800
C1812       C  0.12205054  0.56018532  0.92366435    -0.11300
C1813       C  0.12194925  0.54726135  0.94571506    -0.10600
C1814       C  0.13649130  0.53738396  0.95082642    -0.01500
C1815       C  0.15104904  0.54053046  0.93321842    -0.11700
C1816       C  0.15111195  0.55334781  0.91106614    -0.10100
H1817       H  0.11078171  0.56782355  0.92061137     0.07800
H1818       H  0.11056461  0.54515122  0.95904451     0.11500
H1819       H  0.16237459  0.53298317  0.93637054     0.11200
H1820       H  0.16244485  0.55528069  0.89750679     0.07800
C1821       C  0.07013174  0.80728439  0.53587227    -0.11300
C1822       C  0.08063412  0.80606171  0.50973944     0.05800
C1823       C  0.07674186  0.81587554  0.98362387    -0.10100
C1824       C  0.06267604  0.82660192  0.98361135    -0.11700
C1825       C  0.05230581  0.82789806  0.50982479    -0.01500
C1826       C  0.05620214  0.81819283  0.53599948    -0.10600
C1827       C  0.09553559  0.79455868  0.50987047     0.05800
H1828       H  0.08470109  0.81546329  0.96333122     0.07800
H1829       H  0.06008924  0.83412430  0.96323378     0.11200
H1830       H  0.04837104  0.81889003  0.55644542     0.11500
H1831       H  0.07255624  0.79966001  0.55617379     0.07800
C1832       C  0.10511876  0.79243805  0.53694696    -0.11300
C1833       C  0.11835584  0.78079345  0.53797582    -0.10600
C1834       C  0.12246597  0.77112545  0.51188014    -0.01500
C1835       C  0.11355606  0.77377334  0.48430695    -0.11700
C1836       C  0.10008869  0.78530679  0.48334766    -0.10100
H1837       H  0.10233227  0.79972040  0.55747900     0.07800
H1838       H  0.12537016  0.77926344  0.55931285     0.11500
H1839       H  0.11657812  0.76648712  0.96390762     0.11200
H1840       H  0.09292519  0.78657375  0.96214496     0.07800
C1841       C  0.13717526  0.70197177  0.59508673    -0.11300
C1842       C  0.14989894  0.70141076  0.61767814     0.05800
C1843       C  0.16393236  0.71217983  0.61485134    -0.10100
C1844       C  0.16514931  0.72345133  0.59011704    -0.11700
C1845       C  0.15227049  0.72424094  0.56760208    -0.01500
C1846       C  0.13838209  0.71318579  0.57037346    -0.10600
C1847       C  0.14849849  0.68964069  0.64413546     0.05800
H1848       H  0.17389169  0.71207195  0.63207213     0.07800
H1849       H  0.17624476  0.73133577  0.58913007     0.11200
H1850       H  0.12834678  0.71331015  0.55328265     0.11500
H1851       H  0.12634786  0.69360945  0.59634376     0.07800
C1852       C  0.13288583  0.68726417  0.65897713    -0.11300
C1853       C  0.13153838  0.67614890  0.68388640    -0.10600
C1854       C  0.14579474  0.66722885  0.69452270    -0.01500
C1855       C  0.16141356  0.66962375  0.67970680    -0.11700
C1856       C  0.16274406  0.68069897  0.65473562    -0.10100
H1857       H  0.12174409  0.69416754  0.65156325     0.07800
H1858       H  0.11934786  0.67462737  0.69491713     0.11500
H1859       H  0.17260555  0.66284353  0.68724606     0.11200
H1860       H  0.17487956  0.68210006  0.64345498     0.07800
C1861       C  0.13807622  0.72410120  0.90382187    -0.11300
C1862       C  0.14980925  0.71115439  0.89741583     0.05800
C1863       C  0.16314738  0.70828064  0.91825654    -0.10100
C1864       C  0.16423363  0.71746193  0.94564256    -0.11700
C1865       C  0.15211837  0.72985491  0.95273215    -0.01500
C1866       C  0.13933187  0.73351188  0.93120214    -0.10600
C1867       C  0.14765078  0.69966757  0.87057397     0.05800
H1868       H  0.17227706  0.69830284  0.91414731     0.07800
H1869       H  0.17422858  0.71445575  0.96191710     0.11200
H1870       H  0.12979846  0.74293514  0.93632780     0.11500
H1871       H  0.12773367  0.72663561  0.88803158     0.07800
C1872       C  0.13185288  0.69225228  0.86422617    -0.11300
C1873       C  0.13037498  0.67954824  0.84183391    -0.10600
C1874       C  0.14468106  0.67400324  0.82541479    -0.01500
C1875       C  0.16030609  0.68196180  0.83087861    -0.11700
C1876       C  0.16176558  0.69465110  0.85315893    -0.10100
H1877       H  0.12080207  0.69572668  0.87755331     0.07800
H1878       H  0.11815981  0.67367337  0.83813976     0.11500
H1879       H  0.17151735  0.67816741  0.81830664     0.11200
H1880       H  0.17405227  0.70028393  0.85732935     0.07800
C1881       C  0.43338164  0.14436839  0.66632914    -0.11300
C1882       C  0.43553487  0.12994524  0.64768330     0.05800
C1883       C  0.42530005  0.11571766  0.65342751    -0.10100
C1884       C  0.41319217  0.11595346  0.67696701    -0.11700
C1885       C  0.41087122  0.13047784  0.69517974    -0.01500
C1886       C  0.42114740  0.14466150  0.68965103    -0.10600
C1887       C  0.44827262  0.12978705  0.62223671     0.05800
H1888       H  0.42635802  0.10448755  0.63927100     0.07800
H1889       H  0.40533989  0.10488706  0.68036900     0.11200
H1890       H  0.41971628  0.15603315  0.70333834     0.11500
H1891       H  0.44121746  0.15544735  0.66303152     0.07800
C1892       C  0.45145288  0.14444926  0.60470836    -0.11300
C1893       C  0.46342188  0.14430323  0.58091480    -0.10600
C1894       C  0.47240224  0.12944961  0.57380323    -0.01500
C1895       C  0.46916995  0.11476636  0.59113138    -0.11700
C1896       C  0.45733124  0.11495185  0.61512134    -0.10100
H1897       H  0.44451914  0.15602238  0.60906241     0.07800
H1898       H  0.46550510  0.15579662  0.56785096     0.11500
H1899       H  0.47594860  0.10313986  0.58639615     0.11200
H1900       H  0.45546053  0.10349519  0.62837679     0.07800
C1901       C  0.45046749  0.14429719  0.90734634    -0.11300
C1902       C  0.44183441  0.12926851  0.89996739     0.05800
C1903       C  0.44670779  0.11417963  0.91477355    -0.10100
C1904       C  0.46005376  0.11407456  0.93599353    -0.11700
C1905       C  0.46872996  0.12908461  0.94315609    -0.01500
C1906       C  0.46369756  0.14421802  0.92878867    -0.10600
C1907       C  0.42824580  0.12926593  0.87613630     0.05800
H1908       H  0.44016032  0.10242782  0.91009660     0.07800
H1909       H  0.46351939  0.10222829  0.94689412     0.11200
H1910       H  0.47014455  0.15599449  0.93376893     0.11500
H1911       H  0.44729017  0.15609687  0.89602187     0.07800
C1912       C  0.41733680  0.14324086  0.87276418    -0.11300
C1913       C  0.40544171  0.14373722  0.84886442    -0.10600
C1914       C  0.40399187  0.13014077  0.82820964    -0.01500
C1915       C  0.41439883  0.11591145  0.83219239    -0.11700
C1916       C  0.42649799  0.11553402  0.85572181    -0.10100
H1917       H  0.41804534  0.15386070  0.88848226     0.07800
H1918       H  0.39739124  0.15476864  0.84649960     0.11500
H1919       H  0.41359423  0.10530648  0.81643081     0.11200
H1920       H  0.43483530  0.10468727  0.85725254     0.07800
C1921       C  0.19200712  0.06407800  0.97417104    -0.11300
C1922       C  0.20227864  0.06714471  0.50017472     0.05800
C1923       C  0.20035186  0.05658393  0.52617301    -0.10100
C1924       C  0.18831357  0.04363135  0.52638912    -0.11700
C1925       C  0.17815012  0.04060083  0.50037452    -0.01500
C1926       C  0.18020727  0.05087980  0.97418307    -0.10600
C1927       C  0.21468717  0.08143013  0.50052155     0.05800
H1928       H  0.20825643  0.05815437  0.54639064     0.07800
H1929       H  0.18714322  0.03581326  0.54681197     0.11200
H1930       H  0.17246256  0.04891931  0.95384123     0.11500
H1931       H  0.19280038  0.07205637  0.95392914     0.07800
C1932       C  0.22279347  0.08693230  0.47329916    -0.11300
C1933       C  0.23431625  0.10042377  0.47398300    -0.10600
C1934       C  0.23827574  0.10838297  0.50196307    -0.01500
C1935       C  0.23017273  0.10300847  0.52903774    -0.11700
C1936       C  0.21844574  0.08984714  0.52830547    -0.10100
H1937       H  0.22047888  0.08067568  0.45149652     0.07800
H1938       H  0.24043203  0.10434645  0.45283303     0.11500
H1939       H  0.23271870  0.10920779  0.55084818     0.11200
H1940       H  0.21215787  0.08648663  0.54959530     0.07800
C1941       C  0.18707458  0.20690137  0.53928001    -0.11300
C1942       C  0.18911052  0.19692698  0.51260002     0.05800
C1943       C  0.17798648  0.19926948  0.98769388    -0.10100
C1944       C  0.16594232  0.21220278  0.98849952    -0.11700
C1945       C  0.16468126  0.22288446  0.51434255    -0.01500
C1946       C  0.17483684  0.21971950  0.54022943    -0.10600
C1947       C  0.20388322  0.18548190  0.50945618     0.05800
H1948       H  0.17929899  0.19180679  0.96687705     0.07800
H1949       H  0.15807655  0.21436477  0.96835837     0.11200
H1950       H  0.17405201  0.22782684  0.56032517     0.11500
H1951       H  0.19540486  0.20518923  0.55893052     0.07800
C1952       C  0.22003608  0.19144160  0.51729803    -0.11300
C1953       C  0.23417854  0.18105456  0.51419017    -0.10600
C1954       C  0.23252885  0.16432215  0.50359350    -0.01500
C1955       C  0.21645062  0.15846221  0.99473352    -0.11700
C1956       C  0.20222513  0.16900760  0.99750327    -0.10100
H1957       H  0.22174889  0.20424496  0.52564667     0.07800
H1958       H  0.24644963  0.18609036  0.52051240     0.11500
H1959       H  0.21477731  0.14558273  0.98679198     0.11200
H1960       H  0.18988928  0.16417810  0.99105807     0.07800
C1961       C  0.32338279  0.12144193  0.64426356    -0.11300
C1962       C  0.32126666  0.13690579  0.62874142     0.05800
C1963       C  0.32982386  0.15129961  0.63951960    -0.10100
C1964       C  0.34001804  0.15034858  0.66573963    -0.11700
C1965       C  0.34191079  0.13496290  0.68161425    -0.01500
C1966       C  0.33364092  0.12046890  0.67045886    -0.10600
C1967       C  0.30951924  0.13821009  0.60230404     0.05800
H1968       H  0.32860704  0.16331286  0.62767651     0.07800
H1969       H  0.34642371  0.16167998  0.67354700     0.11200
H1970       H  0.33490759  0.10842828  0.68218759     0.11500
H1971       H  0.31676107  0.11020170  0.63661642     0.07800
C1972       C  0.30893556  0.12551606  0.57974134    -0.11300
C1973       C  0.29713185  0.12641602  0.55582025    -0.10600
C1974       C  0.28546898  0.13987955  0.55412490    -0.01500
C1975       C  0.28661339  0.15292093  0.57619691    -0.11700
C1976       C  0.29843045  0.15201656  0.60003710    -0.10100
H1977       H  0.31759088  0.11488960  0.58062704     0.07800
H1978       H  0.29689407  0.11639793  0.53876805     0.11500
H1979       H  0.27862295  0.16395700  0.57557490     0.11200
H1980       H  0.29862234  0.16199119  0.61716772     0.07800
C1981       C  0.29651469  0.15375228  0.90549888    -0.11300
C1982       C  0.29463498  0.14001300  0.88519521     0.05800
C1983       C  0.28237544  0.12761816  0.89195964    -0.10100
C1984       C  0.27293792  0.12847034  0.91932944    -0.11700
C1985       C  0.27576520  0.14160844  0.94044041    -0.01500
C1986       C  0.28721859  0.15451152  0.93279278    -0.10600
C1987       C  0.30649594  0.13807425  0.85873776     0.05800
H1988       H  0.28049639  0.11698306  0.87659541     0.07800
H1989       H  0.26430413  0.11830382  0.92493633     0.11200
H1990       H  0.28964208  0.16474375  0.94883378     0.11500
H1991       H  0.30592963  0.16342234  0.90127403     0.07800
C1992       C  0.31180412  0.15229569  0.84183459    -0.11300
C1993       C  0.32460459  0.15089435  0.81975439    -0.10600
C1994       C  0.33238167  0.13521765  0.81387409    -0.01500
C1995       C  0.32658474  0.12084001  0.82977516    -0.11700
C1996       C  0.31381167  0.12226067  0.85201486    -0.10100
H1997       H  0.30626467  0.16460944  0.84610441     0.07800
H1998       H  0.32861078  0.16218875  0.80764657     0.11500
H1999       H  0.33231163  0.10858103  0.82580195     0.11200
H2000       H  0.31019018  0.11109427  0.86488700     0.07800
C2001       C  0.55852019  0.11239834  0.89899770    -0.11300
C2002       C  0.56691926  0.12729758  0.88994390     0.05800
C2003       C  0.56256580  0.14254792  0.90476052    -0.10100
C2004       C  0.55013567  0.14290567  0.92777077    -0.11700
C2005       C  0.54178997  0.12800534  0.93680787    -0.01500
C2006       C  0.54617019  0.11274164  0.92215801    -0.10600
C2007       C  0.58007194  0.12696471  0.86511825     0.05800
H2008       H  0.56893448  0.15423113  0.89890149     0.07800
H2009       H  0.54719075  0.15486443  0.93871239     0.11200
H2010       H  0.53996927  0.10102718  0.92844668     0.11500
H2011       H  0.56129239  0.10045843  0.88786749     0.07800
C2012       C  0.59110193  0.11305916  0.86190278    -0.11300
C2013       C  0.60335176  0.11276142  0.83855039    -0.10600
C2014       C  0.60506234  0.12645413  0.81807217    -0.01500
C2015       C  0.59413950  0.14037437  0.82129295    -0.11700
C2016       C  0.58172916  0.14057416  0.84433863    -0.10100
H2017       H  0.59046720  0.10248323  0.87773896     0.07800
H2018       H  0.61172878  0.10194193  0.83691589     0.11500
H2019       H  0.59507687  0.15106914  0.80575412     0.11200
H2020       H  0.57330117  0.15135614  0.84562374     0.07800
C2021       C  0.58636587  0.11233564  0.65516947    -0.11300
C2022       C  0.58353651  0.12714846  0.63780954     0.05800
C2023       C  0.59347118  0.14149713  0.64415513    -0.10100
C2024       C  0.60564743  0.14114865  0.66758335    -0.11700
C2025       C  0.60836283  0.12638317  0.68498985    -0.01500
C2026       C  0.59872230  0.11192326  0.67832615    -0.10600
C2027       C  0.57018413  0.12767862  0.61346143     0.05800
H2028       H  0.59194582  0.15300741  0.63088153     0.07800
H2029       H  0.61300261  0.15245614  0.67197407     0.11200
H2030       H  0.60045957  0.10039077  0.69147761     0.11500
H2031       H  0.57878953  0.10112333  0.65136253     0.07800
C2032       C  0.56660197  0.11326990  0.59556019    -0.11300
C2033       C  0.55378770  0.11361307  0.57329414    -0.10600
C2034       C  0.54439520  0.12843724  0.56803700    -0.01500
C2035       C  0.54810325  0.14294187  0.58548911    -0.11700
C2036       C  0.56076504  0.14253612  0.60809060    -0.10100
H2037       H  0.57379754  0.10171836  0.59852064     0.07800
H2038       H  0.55132494  0.10227359  0.56000193     0.11500
H2039       H  0.54099622  0.15452403  0.58209936     0.11200
H2040       H  0.56292366  0.15379564  0.62174916     0.07800
C2041       C  0.80752836  0.08786078  0.52445944    -0.11300
C2042       C  0.80451526  0.07265796  0.50857806     0.05800
C2043       C  0.78883518  0.07024210  0.99411584    -0.10100
C2044       C  0.77665789  0.08301663  0.99433609    -0.11700
C2045       C  0.77996713  0.09873351  0.50843793    -0.01500
C2046       C  0.79535845  0.10080305  0.52436999    -0.10600
C2047       C  0.81763125  0.05930767  0.50657364     0.05800
H2048       H  0.78602061  0.05843994  0.98250180     0.07800
H2049       H  0.76468602  0.08055354  0.98304081     0.11200
H2050       H  0.79829755  0.11250726  0.53585565     0.11500
H2051       H  0.81951370  0.08994829  0.53604721     0.07800
C2052       C  0.82157295  0.05193230  0.97795349    -0.11300
C2053       C  0.83349969  0.03888761  0.97600502    -0.10600
C2054       C  0.84157352  0.03283011  0.50272065    -0.01500
C2055       C  0.83767794  0.04032717  0.53133369    -0.11700
C2056       C  0.82590888  0.05350298  0.53320185    -0.10100
H2057       H  0.81544189  0.05633101  0.95704340     0.07800
H2058       H  0.83630832  0.03348403  0.95363165     0.11500
H2059       H  0.84375634  0.03604311  0.55236515     0.11200
H2060       H  0.82300924  0.05892729  0.55552597     0.07800
C2061       C  0.71142152  0.11469249  0.92254969    -0.11300
C2062       C  0.71041934  0.12803351  0.90123783     0.05800
C2063       C  0.72121549  0.14197468  0.90483881    -0.10100
C2064       C  0.73267177  0.14269950  0.92932843    -0.11700
C2065       C  0.73375014  0.12936704  0.95089896    -0.01500
C2066       C  0.72293141  0.11536156  0.94701714    -0.10600
C2067       C  0.69815712  0.12752007  0.87531753     0.05800
H2068       H  0.72090586  0.15234874  0.88850304     0.07800
H2069       H  0.74036425  0.15389110  0.93085144     0.11200
H2070       H  0.72331886  0.10493120  0.96324362     0.11500
H2071       H  0.70311449  0.10385405  0.92061828     0.07800
C2072       C  0.69522869  0.11241400  0.85907746    -0.11300
C2073       C  0.68395671  0.11208953  0.83419118    -0.10600
C2074       C  0.67547498  0.12688967  0.82495554    -0.01500
C2075       C  0.67830127  0.14195451  0.84135088    -0.11700
C2076       C  0.68946789  0.14225080  0.86632632    -0.10100
H2077       H  0.70188454  0.10091001  0.86525000     0.07800
H2078       H  0.68203575  0.10029509  0.82197058     0.11500
H2079       H  0.67178568  0.15351846  0.83503570     0.11200
H2080       H  0.69120595  0.15400602  0.87875989     0.07800
C2081       C  0.71688051  0.11238981  0.59714571    -0.11300
C2082       C  0.71811567  0.12530140  0.61936104     0.05800
C2083       C  0.73029027  0.13812390  0.61495827    -0.10100
C2084       C  0.74046664  0.13835003  0.58838006    -0.11700
C2085       C  0.73849740  0.12587891  0.56564861    -0.01500
C2086       C  0.72688110  0.11273059  0.57060340    -0.10600
C2087       C  0.70597628  0.12578828  0.64577705     0.05800
H2088       H  0.73169332  0.14816691  0.63174805     0.07800
H2089       H  0.74919504  0.14872328  0.58479836     0.11200
H2090       H  0.72504866  0.10306552  0.55318942     0.11500
H2091       H  0.70755106  0.10244679  0.59945121     0.07800
C2092       C  0.69855735  0.14113206  0.65520574    -0.11300
C2093       C  0.68601385  0.14137329  0.67806790    -0.10600
C2094       C  0.68053057  0.12627168  0.69205513    -0.01500
C2095       C  0.68825946  0.11099168  0.68319609    -0.11700
C2096       C  0.70081571  0.11075751  0.66042349    -0.10100
H2097       H  0.70202641  0.15291856  0.64416587     0.07800
H2098       H  0.68033912  0.15337152  0.68428024     0.11500
H2099       H  0.68448812  0.09913597  0.69365365     0.11200
H2100       H  0.70640818  0.09874110  0.65409216     0.07800
C2101       C  0.43404300  0.85079452  0.83212173    -0.11300
C2102       C  0.43779049  0.86535217  0.84959624     0.05800
C2103       C  0.42865949  0.88028619  0.84327123    -0.10100
C2104       C  0.41630114  0.88069400  0.82005543    -0.11700
C2105       C  0.41253202  0.86612222  0.80281675    -0.01500
C2106       C  0.42150270  0.85114778  0.80921720    -0.10600
C2107       C  0.45107279  0.86497280  0.87431277     0.05800
H2108       H  0.43084171  0.89166278  0.85657629     0.07800
H2109       H  0.40949771  0.89238660  0.81594062     0.11200
H2110       H  0.41896741  0.83971020  0.79625724     0.11500
H2111       H  0.44094678  0.83912867  0.83578687     0.07800
C2112       C  0.45393713  0.85024433  0.89190159    -0.11300
C2113       C  0.46629064  0.84994012  0.91512531    -0.10600
C2114       C  0.47596203  0.86441636  0.92173519    -0.01500
C2115       C  0.47314942  0.87913935  0.90427149    -0.11700
C2116       C  0.46096829  0.87937922  0.88073306    -0.10100
H2117       H  0.44642986  0.83898082  0.88817548     0.07800
H2118       H  0.46806687  0.83841410  0.92827608     0.11500
H2119       H  0.48049504  0.89046045  0.90858225     0.11200
H2120       H  0.45946693  0.89084995  0.86735209     0.07800
C2121       C  0.43305849  0.87956674  0.64170175    -0.11300
C2122       C  0.43505739  0.86513207  0.62310545     0.05800
C2123       C  0.42459354  0.85103721  0.62836651    -0.10100
C2124       C  0.41258184  0.85129681  0.65193702    -0.11700
C2125       C  0.41061684  0.86574411  0.67040226    -0.01500
C2126       C  0.42088129  0.87991131  0.66494015    -0.10600
C2127       C  0.44817160  0.86471795  0.59865901     0.05800
H2128       H  0.42556768  0.83984070  0.61409606     0.07800
H2129       H  0.40469052  0.84026725  0.65546060     0.11200
H2130       H  0.41969854  0.89118221  0.67898629     0.11500
H2131       H  0.44110605  0.89052042  0.63870035     0.07800
C2132       C  0.45197475  0.87934921  0.58155161    -0.11300
C2133       C  0.46466855  0.87907835  0.55922583    -0.10600
C2134       C  0.47367302  0.86411683  0.55323670    -0.01500
C2135       C  0.46974029  0.84942755  0.56996286    -0.11700
C2136       C  0.45719705  0.84974893  0.59256616    -0.10100
H2137       H  0.44505800  0.89100524  0.58522534     0.07800
H2138       H  0.46734565  0.89056447  0.54650208     0.11500
H2139       H  0.47656565  0.83774173  0.56597931     0.11200
H2140       H  0.45481940  0.83833667  0.60567993     0.07800
C2141       C  0.19566963  0.94498306  0.52700149    -0.11300
C2142       C  0.20373613  0.94031963  0.49938852     0.05800
C2143       C  0.20026952  0.94977079  0.97251447    -0.10100
C2144       C  0.18860437  0.96307395  0.97294745    -0.11700
C2145       C  0.18026984  0.96746550  0.50036794    -0.01500
C2146       C  0.18412608  0.95844071  0.52750341    -0.10600
C2147       C  0.21539406  0.92546680  0.49815043     0.05800
H2148       H  0.20657137  0.94689199  0.95098967     0.07800
H2149       H  0.18606097  0.96987186  0.95172516     0.11200
H2150       H  0.17788291  0.96148205  0.54902406     0.11500
H2151       H  0.19788620  0.93794480  0.54806545     0.07800
C2152       C  0.22628690  0.92141393  0.52294814    -0.11300
C2153       C  0.23777850  0.90790865  0.52060317    -0.10600
C2154       C  0.23870883  0.89845562  0.49330567    -0.01500
C2155       C  0.22742187  0.90204561  0.96912906    -0.11700
C2156       C  0.21584213  0.91527491  0.97158492    -0.10100
H2157       H  0.22632880  0.92898844  0.54374905     0.07800
H2158       H  0.24636994  0.90529726  0.53952326     0.11500
H2159       H  0.22767578  0.89464564  0.94808942     0.11200
H2160       H  0.20727953  0.91755331  0.95248577     0.07800
C2161       C  0.22188754  0.82185087  0.52612275    -0.11300
C2162       C  0.21165953  0.81667613  0.50121652     0.05800
C2163       C  0.21317659  0.82498110  0.97277655    -0.10100
C2164       C  0.22512981  0.83775496  0.96890354    -0.11700
C2165       C  0.23575878  0.84258642  0.49343790    -0.01500
C2166       C  0.23376044  0.83485354  0.52233001    -0.10600
C2167       C  0.19998895  0.80213480  0.50419519     0.05800
H2168       H  0.20550139  0.82118757  0.95322293     0.07800
H2169       H  0.22624810  0.84371360  0.94648173     0.11200
H2170       H  0.24182539  0.83837084  0.54152530     0.11500
H2171       H  0.22081706  0.81568319  0.54835986     0.07800
C2172       C  0.20578597  0.78680170  0.51665176    -0.11300
C2173       C  0.19501876  0.77283550  0.51844334    -0.10600
C2174       C  0.17813192  0.77397515  0.50822168    -0.01500
C2175       C  0.17238811  0.78930972  0.49551113    -0.11700
C2176       C  0.18324737  0.80322679  0.49335655    -0.10100
H2177       H  0.21874968  0.78555053  0.52453828     0.07800
H2178       H  0.19995819  0.76112496  0.52781664     0.11500
H2179       H  0.15939059  0.79074693  0.98800054     0.11200
H2180       H  0.17849921  0.81495209  0.98367804     0.07800
C2181       C  0.30578759  0.88220576  0.90090788    -0.11300
C2182       C  0.30378822  0.87054494  0.87677755     0.05800
C2183       C  0.29042569  0.85890577  0.87803428    -0.10100
C2184       C  0.27975067  0.85835181  0.90357218    -0.11700
C2185       C  0.28222634  0.86945069  0.92864287    -0.01500
C2186       C  0.29505873  0.88173354  0.92638630    -0.10600
C2187       C  0.31605741  0.86998026  0.85108951     0.05800
H2188       H  0.28827394  0.85011716  0.85926140     0.07800
H2189       H  0.26969499  0.84917906  0.90300135     0.11200
H2190       H  0.29707215  0.89071631  0.94490770     0.11500
H2191       H  0.31600184  0.89132971  0.90062973     0.07800
C2192       C  0.32257899  0.88496943  0.83844698    -0.11300
C2193       C  0.33474791  0.88431352  0.81521461    -0.10600
C2194       C  0.34060500  0.86865342  0.80415898    -0.01500
C2195       C  0.33392976  0.85367311  0.81653675    -0.11700
C2196       C  0.32179361  0.85433327  0.83979386    -0.10100
H2197       H  0.31823812  0.89720006  0.84645573     0.07800
H2198       H  0.33959753  0.89608685  0.80600126     0.11500
H2199       H  0.33819225  0.84142250  0.80848498     0.11200
H2200       H  0.31719020  0.84256802  0.84944690     0.07800
C2201       C  0.28872288  0.87755479  0.59556096    -0.11300
C2202       C  0.30237469  0.86618699  0.59864426     0.05800
C2203       C  0.30550786  0.85464333  0.57467993    -0.10100
C2204       C  0.29567235  0.85482417  0.54789988    -0.11700
C2205       C  0.28237234  0.86648927  0.54437388    -0.01500
C2206       C  0.27870128  0.87759463  0.56872472    -0.10600
C2207       C  0.31389704  0.86665804  0.62589708     0.05800
H2208       H  0.31600014  0.84584425  0.57612164     0.07800
H2209       H  0.29870393  0.84603137  0.52955534     0.11200
H2210       H  0.26857608  0.88675633  0.56646578     0.11500
H2211       H  0.28592334  0.88650818  0.61375485     0.07800
C2212       C  0.31995276  0.88212135  0.63756759    -0.11300
C2213       C  0.33221644  0.88240463  0.66103215    -0.10600
C2214       C  0.33862592  0.86722362  0.67341448    -0.01500
C2215       C  0.33208863  0.85180244  0.66246205    -0.11700
C2216       C  0.31991338  0.85152677  0.63901286    -0.10100
H2217       H  0.31567510  0.89399052  0.62776286     0.07800
H2218       H  0.33690938  0.89450180  0.66903780     0.11500
H2219       H  0.33659275  0.83986368  0.67163136     0.11200
H2220       H  0.31533377  0.83941654  0.63084202     0.07800
C2221       C  0.59177677  0.87576228  0.63969691    -0.11300
C2222       C  0.58226240  0.86113752  0.63323273     0.05800
C2223       C  0.58573553  0.84634723  0.65035959    -0.10100
C2224       C  0.59848472  0.84618269  0.67296287    -0.11700
C2225       C  0.60789711  0.86086245  0.67929835    -0.01500
C2226       C  0.60429102  0.87565709  0.66252520    -0.10600
C2227       C  0.56908566  0.86135146  0.60834045     0.05800
H2228       H  0.57853070  0.83489937  0.64652584     0.07800
H2229       H  0.60088752  0.83460184  0.68561697     0.11200
H2230       H  0.61139531  0.88715643  0.66660300     0.11500
H2231       H  0.58985889  0.88729005  0.62666097     0.07800
C2232       C  0.55982788  0.87619590  0.60184372    -0.11300
C2233       C  0.54812951  0.87669361  0.57754875    -0.10600
C2234       C  0.54511359  0.86228092  0.55941750    -0.01500
C2235       C  0.55403990  0.84733336  0.56622470    -0.11700
C2236       C  0.56594957  0.84690160  0.59021249    -0.10100
H2237       H  0.56150395  0.88747709  0.61565047     0.07800
H2238       H  0.54130597  0.88834782  0.57317595     0.11500
H2239       H  0.55203940  0.83601046  0.55263850     0.11200
H2240       H  0.57295913  0.83531335  0.59402478     0.07800
C2241       C  0.59004293  0.87710100  0.83984956    -0.11300
C2242       C  0.58670904  0.86250310  0.85736422     0.05800
C2243       C  0.59608565  0.84772034  0.85139511    -0.10100
C2244       C  0.60831037  0.84748524  0.82818846    -0.11700
C2245       C  0.61159394  0.86209485  0.81077035    -0.01500
C2246       C  0.60242707  0.87692820  0.81697165    -0.10600
C2247       C  0.57338324  0.86265976  0.88147944     0.05800
H2248       H  0.59410124  0.83634230  0.86482208     0.07800
H2249       H  0.61527024  0.83589576  0.82404014     0.11200
H2250       H  0.60459391  0.88834937  0.80373646     0.11500
H2251       H  0.58286213  0.88860982  0.84335885     0.07800
C2252       C  0.57043569  0.87726011  0.89924525    -0.11300
C2253       C  0.55770206  0.87747580  0.92151590    -0.10600
C2254       C  0.54782152  0.86301770  0.92683816    -0.01500
C2255       C  0.55081992  0.84838746  0.90932982    -0.11700
C2256       C  0.56337199  0.84824651  0.88674414    -0.10100
H2257       H  0.57808987  0.88848979  0.89623193     0.07800
H2258       H  0.55572599  0.88890744  0.93481050     0.11500
H2259       H  0.54327594  0.83710718  0.91273412     0.11200
H2260       H  0.56502268  0.83690620  0.87307604     0.07800
C2261       C  0.79043434  0.92057224  0.50701525    -0.11300
C2262       C  0.80584790  0.91883997  0.49136562     0.05800
C2263       C  0.80878003  0.90405246  0.97414428    -0.10100
C2264       C  0.79685538  0.89094435  0.97381881    -0.11700
C2265       C  0.78180134  0.89228428  0.49090010    -0.01500
C2266       C  0.77852844  0.90755574  0.50659541    -0.10600
C2267       C  0.81876714  0.93244047  0.49323895     0.05800
H2268       H  0.82052529  0.90240105  0.96166582     0.07800
H2269       H  0.79977069  0.87964103  0.96090328     0.11200
H2270       H  0.76676862  0.90954421  0.51879263     0.11500
H2271       H  0.78756014  0.93205059  0.51961689     0.07800
C2272       C  0.82764477  0.93754660  0.46682150    -0.11300
C2273       C  0.83944690  0.95066969  0.46847161    -0.10600
C2274       C  0.84275009  0.95890949  0.49663553    -0.01500
C2275       C  0.83408142  0.95362116  0.52319172    -0.11700
C2276       C  0.82216198  0.94056891  0.52147940    -0.10100
H2277       H  0.82522023  0.93161454  0.44472592     0.07800
H2278       H  0.84599117  0.95436384  0.44759954     0.11500
H2279       H  0.83639283  0.95966152  0.54522932     0.11200
H2280       H  0.81567130  0.93673678  0.54232504     0.07800
C2281       C  0.71311244  0.87337711  0.57351671    -0.11300
C2282       C  0.71343368  0.86056952  0.59591343     0.05800
C2283       C  0.72527498  0.84742748  0.59321417    -0.10100
C2284       C  0.73652284  0.84697055  0.56848661    -0.11700
C2285       C  0.73622323  0.85973341  0.54575545    -0.01500
C2286       C  0.72439073  0.87297791  0.54882551    -0.10600
C2287       C  0.70144910  0.86083411  0.62204670     0.05800
H2288       H  0.72598409  0.83755299  0.61051669     0.07800
H2289       H  0.74536478  0.83660895  0.56795316     0.11200
H2290       H  0.72386341  0.88305275  0.53188081     0.11500
H2291       H  0.70400098  0.88359719  0.57487771     0.07800
C2292       C  0.69787247  0.87601647  0.63755105    -0.11300
C2293       C  0.68665722  0.87617509  0.66238152    -0.10600
C2294       C  0.67885755  0.86114303  0.67220169    -0.01500
C2295       C  0.68242895  0.84597363  0.65665800    -0.11700
C2296       C  0.69358653  0.84583164  0.63178378    -0.10100
H2297       H  0.70392476  0.88772171  0.63074089     0.07800
H2298       H  0.68418162  0.88805118  0.67399579     0.11500
H2299       H  0.67648403  0.83422202  0.66351763     0.11200
H2300       H  0.69592503  0.83400071  0.61992350     0.07800
C2301       C  0.70227283  0.87960977  0.83823726    -0.11300
C2302       C  0.70951843  0.86475536  0.85040849     0.05800
C2303       C  0.70415277  0.84906973  0.83852034    -0.10100
C2304       C  0.69151996  0.84826176  0.81577207    -0.11700
C2305       C  0.68393899  0.86312062  0.80436923    -0.01500
C2306       C  0.68964672  0.87880197  0.81561588    -0.10600
C2307       C  0.72155435  0.86560646  0.87701568     0.05800
H2308       H  0.70926168  0.83735785  0.84758948     0.07800
H2309       H  0.68746899  0.83597623  0.80755617     0.11200
H2310       H  0.68419666  0.89052083  0.80723594     0.11500
H2311       H  0.70625384  0.89192454  0.84640663     0.07800
C2312       C  0.73502442  0.85399148  0.88025786    -0.11300
C2313       C  0.74497132  0.85375485  0.90719928    -0.10600
C2314       C  0.74150786  0.86503117  0.93134463    -0.01500
C2315       C  0.72871950  0.87718983  0.92741960    -0.11700
C2316       C  0.71888236  0.87749220  0.90065333    -0.10100
H2317       H  0.73759558  0.84481979  0.86232225     0.07800
H2318       H  0.75469616  0.84419093  0.90988915     0.11500
H2319       H  0.72581203  0.88599461  0.94582682     0.11200
H2320       H  0.70856061  0.88648496  0.89931474     0.07800
C2321       C  0.89270709  0.41798823  0.66184050    -0.11300
C2322       C  0.87797399  0.42673630  0.65263950     0.05800
C2323       C  0.86272519  0.42306055  0.66801685    -0.10100
C2324       C  0.86215187  0.41079155  0.69131185    -0.11700
C2325       C  0.87683969  0.40195393  0.70020338    -0.01500
C2326       C  0.89215947  0.40583713  0.68539502    -0.10600
C2327       C  0.87845578  0.43948099  0.62701986     0.05800
H2328       H  0.85117428  0.42973528  0.66225172     0.07800
H2329       H  0.85013693  0.40820866  0.70232332     0.11200
H2330       H  0.90369852  0.39922445  0.69154493     0.11500
H2331       H  0.90465226  0.42019581  0.65036753     0.07800
C2332       C  0.89294973  0.44946737  0.62193471    -0.11300
C2333       C  0.89341679  0.46130166  0.59786723    -0.10600
C2334       C  0.87931012  0.46370688  0.57854266    -0.01500
C2335       C  0.86480398  0.45381414  0.58355121    -0.11700
C2336       C  0.86442770  0.44177274  0.60727778    -0.10100
H2337       H  0.90390163  0.44837671  0.63685035     0.07800
H2338       H  0.90474754  0.46880650  0.59474869     0.11500
H2339       H  0.85377980  0.45523470  0.56886381     0.11200
H2340       H  0.85316953  0.43411608  0.60982647     0.07800
C2341       C  0.89341248  0.41581526  0.86618402    -0.11300
C2342       C  0.87863403  0.42089424  0.88163194     0.05800
C2343       C  0.86314219  0.41330556  0.87365949    -0.10100
C2344       C  0.86230221  0.40151943  0.84980061    -0.11700
C2345       C  0.87697585  0.39688478  0.83368832    -0.01500
C2346       C  0.89259840  0.40386388  0.84252629    -0.10600
C2347       C  0.87916332  0.43467522  0.90479170     0.05800
H2348       H  0.85159944  0.41659831  0.88567749     0.07800
H2349       H  0.85012867  0.39611938  0.84385951     0.11200
H2350       H  0.90413872  0.40045219  0.83059601     0.11500
H2351       H  0.90552256  0.42150383  0.87157973     0.07800
C2352       C  0.89296384  0.43638368  0.92511953    -0.11300
C2353       C  0.89348204  0.44970796  0.94627872    -0.10600
C2354       C  0.88009474  0.46137299  0.94777462    -0.01500
C2355       C  0.86632048  0.45966326  0.92757035    -0.11700
C2356       C  0.86592558  0.44655123  0.90613386    -0.10100
H2357       H  0.90326543  0.42733852  0.92491083     0.07800
H2358       H  0.90418570  0.45070847  0.96184096     0.11500
H2359       H  0.85593264  0.46861788  0.92805511     0.11200
H2360       H  0.85533292  0.44588479  0.89028201     0.07800
C2361       C  0.94595212  0.18718411  0.97282941    -0.11300
C2362       C  0.94237819  0.19736331  0.49854698     0.05800
C2363       C  0.95240231  0.19566250  0.52523467    -0.10100
C2364       C  0.96557583  0.18383990  0.52636960    -0.11700
C2365       C  0.96918474  0.17367231  0.50064845    -0.01500
C2366       C  0.95932865  0.17556729  0.97376608    -0.10600
C2367       C  0.92805185  0.20951336  0.49798708     0.05800
H2368       H  0.94981290  0.20325771  0.54548499     0.07800
H2369       H  0.97298095  0.18269720  0.54733761     0.11200
H2370       H  0.96177850  0.16785396  0.95360820     0.11500
H2371       H  0.93846825  0.18830745  0.95194927     0.07800
C2372       C  0.93021984  0.22598714  0.50935968    -0.11300
C2373       C  0.91646208  0.23702029  0.51142946    -0.10600
C2374       C  0.90015055  0.23176430  0.50256067    -0.01500
C2375       C  0.89810141  0.21552815  0.48990375    -0.11700
C2376       C  0.91195091  0.20451904  0.48753021    -0.10100
H2377       H  0.94255567  0.23026059  0.01701971     0.07800
H2378       H  0.91856136  0.24959016  0.02058141     0.11500
H2379       H  0.88569353  0.21100991  0.48322660     0.11200
H2380       H  0.90993293  0.19183939  0.47880533     0.07800
C2381       C  0.79136521  0.18589701  0.50115684    -0.11300
C2382       C  0.80750245  0.18176703  0.51238727     0.05800
C2383       C  0.81011995  0.16562956  0.02532205    -0.10100
C2384       C  0.79707847  0.15356286  0.02534528    -0.11700
C2385       C  0.78117566  0.15744145  0.51253787    -0.01500
C2386       C  0.77835390  0.17399320  0.50156513    -0.10600
C2387       C  0.82124701  0.19458494  0.51125343     0.05800
H2388       H  0.82240547  0.16215780  0.03451997     0.07800
H2389       H  0.79970138  0.14111391  0.03422140     0.11200
H2390       H  0.76609373  0.17775484  0.49270760     0.11500
H2391       H  0.78877168  0.19841137  0.49210764     0.07800
C2392       C  0.82355562  0.20475405  0.98485380    -0.11300
C2393       C  0.83524572  0.21808803  0.98502823    -0.10600
C2394       C  0.84460844  0.22160704  0.51174785    -0.01500
C2395       C  0.84291159  0.21093869  0.53755756    -0.11700
C2396       C  0.83141611  0.19752487  0.53727484    -0.10100
H2397       H  0.81603876  0.20260106  0.96429465     0.07800
H2398       H  0.83638055  0.22612050  0.96487795     0.11500
H2399       H  0.85020635  0.21326531  0.55832498     0.11200
H2400       H  0.82992539  0.18995002  0.55792175     0.07800
C2401       C  0.88155599  0.29693438  0.59383154    -0.11300
C2402       C  0.86912580  0.29666538  0.61682215     0.05800
C2403       C  0.85589093  0.28492095  0.61483507    -0.10100
C2404       C  0.85517462  0.27343795  0.59043152    -0.11700
C2405       C  0.86773643  0.27348364  0.56737677    -0.01500
C2406       C  0.88076665  0.28559899  0.56926229    -0.10600
C2407       C  0.86994721  0.30863644  0.64284343     0.05800
H2408       H  0.84614801  0.28453181  0.63237128     0.07800
H2409       H  0.84454267  0.26492378  0.58983138     0.11200
H2410       H  0.89041204  0.28625592  0.55157122     0.11500
H2411       H  0.89174817  0.30608186  0.59464806     0.07800
C2412       C  0.88522256  0.31109933  0.65878010    -0.11300
C2413       C  0.88599355  0.32231527  0.68356007    -0.10600
C2414       C  0.87149709  0.33128913  0.69277448    -0.01500
C2415       C  0.85622061  0.32883359  0.67674766    -0.11700
C2416       C  0.85545507  0.31758736  0.65199222    -0.10100
H2417       H  0.89650954  0.30417980  0.65228700     0.07800
H2418       H  0.89792619  0.32389567  0.69556799     0.11500
H2419       H  0.84488417  0.33567900  0.68318792     0.11200
H2420       H  0.84358706  0.31600732  0.63976167     0.07800
C2421       C  0.88318635  0.30602649  0.86103542    -0.11300
C2422       C  0.86709540  0.30122030  0.87181348     0.05800
C2423       C  0.85271937  0.30867917  0.85826317    -0.10100
C2424       C  0.85436104  0.32098168  0.83529598    -0.11700
C2425       C  0.87043086  0.32615960  0.82510674    -0.01500
C2426       C  0.88483769  0.31836637  0.83794727    -0.10600
C2427       C  0.86526677  0.28947876  0.89857124     0.05800
H2428       H  0.84013269  0.30511212  0.86563967     0.07800
H2429       H  0.84297308  0.32660969  0.82582156     0.11200
H2430       H  0.89740262  0.32204855  0.83063026     0.11500
H2431       H  0.89453113  0.30069590  0.87121551     0.07800
C2432       C  0.87596157  0.27534249  0.90240954    -0.11300
C2433       C  0.87507905  0.26538897  0.92923757    -0.10600
C2434       C  0.86360261  0.26950402  0.95276588    -0.01500
C2435       C  0.85234984  0.28306083  0.94814534    -0.11700
C2436       C  0.85319838  0.29293386  0.92150446    -0.10100
H2437       H  0.88524610  0.27220720  0.88498220     0.07800
H2438       H  0.88397738  0.25508791  0.93231410     0.11500
H2439       H  0.84327076  0.28645491  0.96578828     0.11200
H2440       H  0.84487261  0.30377652  0.91958032     0.07800
C2441       C  0.86601848  0.57472751  0.85217622    -0.11300
C2442       C  0.88108165  0.57053525  0.86790309     0.05800
C2443       C  0.89606700  0.57896787  0.85936204    -0.10100
C2444       C  0.89593699  0.59133878  0.83614752    -0.11700
C2445       C  0.88079822  0.59575015  0.82100681    -0.01500
C2446       C  0.86586430  0.58720989  0.82921405    -0.10600
C2447       C  0.88107197  0.55768062  0.89337416     0.05800
H2448       H  0.90788216  0.57634186  0.87112007     0.07800
H2449       H  0.90766310  0.59770534  0.83052139     0.11200
H2450       H  0.85398951  0.59018088  0.81789540     0.11500
H2451       H  0.85428338  0.56830635  0.85745242     0.07800
C2452       C  0.86693356  0.55590177  0.91287042    -0.11300
C2453       C  0.86684525  0.54388677  0.93663946    -0.10600
C2454       C  0.88098762  0.53348148  0.94196949    -0.01500
C2455       C  0.89519910  0.53530821  0.92280564    -0.11700
C2456       C  0.89519667  0.54715064  0.89868274    -0.10100
H2457       H  0.85595611  0.56397163  0.91012959     0.07800
H2458       H  0.85574867  0.54290691  0.95115795     0.11500
H2459       H  0.90624322  0.52737770  0.92613870     0.11200
H2460       H  0.90621258  0.54786481  0.88394675     0.07800
C2461       C  0.89470837  0.57788240  0.66084925    -0.11300
C2462       C  0.88043993  0.57549816  0.64187462     0.05800
C2463       C  0.86617684  0.58588414  0.64633046    -0.10100
C2464       C  0.86603176  0.59803695  0.66972402    -0.11700
C2465       C  0.88023856  0.60023688  0.68881176    -0.01500
C2466       C  0.89465221  0.59020920  0.68389363    -0.10600
C2467       C  0.88032830  0.56198722  0.61804540     0.05800
H2468       H  0.85511528  0.58465216  0.63170941     0.07800
H2469       H  0.85482709  0.60575968  0.67280255     0.11200
H2470       H  0.90574505  0.59158038  0.69841766     0.11500
H2471       H  0.90580202  0.56994445  0.65844424     0.07800
C2472       C  0.89512756  0.55799506  0.60159429    -0.11300
C2473       C  0.89512721  0.54498672  0.57981535    -0.10600
C2474       C  0.88027841  0.53582315  0.57370070    -0.01500
C2475       C  0.86544369  0.53986253  0.58990930    -0.11700
C2476       C  0.86549036  0.55273748  0.61195978    -0.10100
H2477       H  0.90670237  0.56503436  0.60529558     0.07800
H2478       H  0.90672643  0.54223446  0.56751660     0.11500
H2479       H  0.85383333  0.53292793  0.58584676     0.11200
H2480       H  0.85395616  0.55523003  0.62461535     0.07800
C2481       C  0.81581199  0.82951623  0.48990333    -0.11300
C2482       C  0.81287192  0.81210847  0.49415900     0.05800
C2483       C  0.79613910  0.80611700  0.99254018    -0.10100
C2484       C  0.78263614  0.81735321  0.98855610    -0.11700
C2485       C  0.78553136  0.83482556  0.48596765    -0.01500
C2486       C  0.80225395  0.84076381  0.48591188    -0.10600
C2487       C  0.82708797  0.80022997  0.50076750     0.05800
H2488       H  0.79345332  0.79275173  0.99495161     0.07800
H2489       H  0.76981984  0.81247911  0.98881772     0.11200
H2490       H  0.80480877  0.85417237  0.48499232     0.11500
H2491       H  0.82853561  0.83455567  0.49119074     0.07800
C2492       C  0.84249997  0.80162257  0.48481946    -0.11300
C2493       C  0.85525563  0.78954248  0.48902116    -0.10600
C2494       C  0.85295902  0.77599139  0.50951590    -0.01500
C2495       C  0.83799112  0.77499364  0.02665945    -0.11700
C2496       C  0.82515779  0.78702019  0.02235075    -0.10100
H2497       H  0.84436202  0.81153666  0.46792332     0.07800
H2498       H  0.86659764  0.79025434  0.47506374     0.11500
H2499       H  0.83586179  0.76440353  0.04204393     0.11200
H2500       H  0.81354858  0.78575451  0.03538266     0.07800
C2501       C  0.93947122  0.77225924  0.00866477    -0.11300
C2502       C  0.93759738  0.78862169  0.52065534     0.05800
C2503       C  0.92183422  0.79350386  0.53274382    -0.10100
C2504       C  0.90793905  0.78251061  0.53128050    -0.11700
C2505       C  0.90963067  0.76636005  0.51804492    -0.01500
C2506       C  0.92572178  0.76119617  0.00771110    -0.10600
C2507       C  0.95185417  0.80077140  0.51912203     0.05800
H2508       H  0.92007916  0.80610327  0.54202965     0.07800
H2509       H  0.89574865  0.78700298  0.53914210     0.11200
H2510       H  0.92767531  0.74868115  0.99823264     0.11500
H2511       H  0.95157035  0.76809349  0.99972759     0.07800
C2512       C  0.95660191  0.81022635  0.54512778    -0.11300
C2513       C  0.96982416  0.82195049  0.54328845    -0.10600
C2514       C  0.97837490  0.82465899  0.51525066    -0.01500
C2515       C  0.97366954  0.81508311  0.48929880    -0.11700
C2516       C  0.96062192  0.80318605  0.49128085    -0.10100
H2517       H  0.95010519  0.80849334  0.06687413     0.07800
H2518       H  0.97313082  0.82912737  0.56371226     0.11500
H2519       H  0.98000218  0.81684730  0.46739733     0.11200
H2520       H  0.95710833  0.79611805  0.47083507     0.07800
C2521       C  0.88782573  0.69873084  0.93146672    -0.11300
C2522       C  0.87837972  0.70180438  0.90460342     0.05800
C2523       C  0.86848596  0.71650733  0.90268029    -0.10100
C2524       C  0.86770693  0.72777424  0.92738438    -0.11700
C2525       C  0.87676198  0.72453749  0.95483053    -0.01500
C2526       C  0.88711871  0.71002560  0.95616019    -0.10600
C2527       C  0.87869946  0.68969342  0.87863820     0.05800
H2528       H  0.86146303  0.71939819  0.88182688     0.07800
H2529       H  0.86023153  0.73904551  0.92417225     0.11200
H2530       H  0.89459468  0.70735258  0.97658396     0.11500
H2531       H  0.89556620  0.68746740  0.93355836     0.07800
C2532       C  0.89401601  0.68250416  0.86876446    -0.11300
C2533       C  0.89423386  0.67121144  0.84399652    -0.10600
C2534       C  0.87911747  0.66681592  0.82882095    -0.01500
C2535       C  0.86379994  0.67392921  0.83888453    -0.11700
C2536       C  0.86360449  0.68529047  0.86348774    -0.10100
H2537       H  0.90584401  0.68580547  0.87991420     0.07800
H2538       H  0.90623120  0.66588851  0.83681100     0.11500
H2539       H  0.85194762  0.67076528  0.82769192     0.11200
H2540       H  0.85160138  0.69050183  0.87091736     0.07800
C2541       C  0.86048956  0.70799166  0.60278420    -0.11300
C2542       C  0.87394468  0.70957841  0.62389095     0.05800
C2543       C  0.88632246  0.72204801  0.61841614    -0.10100
C2544       C  0.88564794  0.73212461  0.59171919    -0.11700
C2545       C  0.87273427  0.72972498  0.56986436    -0.01500
C2546       C  0.85993787  0.71788930  0.57607467    -0.10600
C2547       C  0.87545159  0.69750233  0.65026552     0.05800
H2548       H  0.89674122  0.72371796  0.63440437     0.07800
H2549       H  0.89575083  0.74104497  0.58724778     0.11200
H2550       H  0.84986894  0.71578168  0.55950096     0.11500
H2551       H  0.85082678  0.69845566  0.60605423     0.07800
C2552       C  0.86099003  0.69230588  0.66656296    -0.11300
C2553       C  0.86209398  0.67979821  0.68935375    -0.10600
C2554       C  0.87770048  0.67214282  0.69655003    -0.01500
C2555       C  0.89226682  0.67765408  0.68088707    -0.11700
C2556       C  0.89115156  0.69017580  0.65799705    -0.10100
H2557       H  0.84874262  0.69782427  0.66148626     0.07800
H2558       H  0.85063379  0.67599263  0.70112152     0.11500
H2559       H  0.90447602  0.67200296  0.68577836     0.11200
H2560       H  0.90250017  0.69370367  0.64560692     0.07800
loop_ 
_geom_bond_atom_site_label_1 
_geom_bond_atom_site_label_2 
_geom_bond_distance 
_geom_bond_site_symmetry_2 
_ccdc_geom_bond_type 
C1            C2   1.536       .  S
C1            C7   1.531       .  S
C1            C5   1.530       .  S
C1         C1245   1.522       .  S
C2            H9   1.082       .  S
C2         C1283   1.362       .  D
C3            C4   1.544       .  S
C3         C1282   1.362   1_554  D
C3         C1214   1.475       .  S
C4            C8   1.547       .  S
C4            C6   1.548       .  S
C4           H10   1.110       .  S
C5           H11   1.086       .  S
C5         C1286   1.368       .  D
C6         C1285   1.368   1_554  D
C6         C1225   1.491       .  S
C7         H1292   1.087       .  S
C7         C1288   1.365       .  D
C8         C1287   1.365       .  D
C8         C1265   1.485       .  S
H12        C1287   1.087       .  S
O13         Ni21   1.930       .  S
O13          C23   1.284       .  A
O14         Ni21   1.927       .  S
O14          C24   1.284       .  A
O15         Ni21   1.912       .  S
O15          C25   1.280       .  A
O16         Ni21   1.911       .  S
O16          C26   1.280       .  A
O17         Ni22   1.913       .  S
O17          C26   1.281       .  A
O18         Ni22   1.915       .  S
O18          C25   1.281       .  A
O19         Ni22   1.922       .  S
O19          C24   1.283       .  A
O20         Ni22   1.918       .  S
O20          C23   1.282       .  A
Ni21        Ni22   2.386       .  S
C23        C1274   1.489       .  S
C24        C1165   1.489       .  S
C25        C1185   1.474       .  S
C26        C1254   1.475       .  S
C27          C28   1.537       .  S
C27          C33   1.526       .  S
C27          C31   1.534       .  S
C27        C1125   1.521       .  S
C28          H35   1.082       .  S
C28          C29   1.366       .  D
C29        C1310   1.545   1_554  S
C29        C1114   1.483       .  S
C30          C34   1.548       .  S
C30        C1309   1.545       .  S
C30        C1312   1.545       .  S
C30          H36   1.110       .  S
C31          H37   1.086       .  S
C31          C32   1.368       .  D
C32        C1310   1.545   1_554  S
C32        C1094   1.487       .  S
C33          H38   1.087       .  S
C33        C1314   1.364   1_554  D
C34        C1313   1.364       .  D
C34        C1154   1.487       .  S
O39         Ni47   1.928       .  S
O39          C49   1.284       .  A
O40         Ni47   1.929       .  S
O40          C50   1.284       .  A
O41         Ni47   1.909       .  S
O41          C51   1.280       .  A
O42         Ni47   1.907       .  S
O42          C52   1.280       .  A
O43         Ni48   1.912       .  S
O43          C52   1.281       .  A
O44         Ni48   1.912       .  S
O44          C51   1.281       .  A
O45         Ni48   1.917       .  S
O45          C50   1.281       .  A
O46         Ni48   1.915       .  S
O46          C49   1.281       .  A
Ni47        Ni48   2.387       .  S
C49        C1145   1.487       .  S
C50        C1045   1.488       .  S
C51        C1065   1.473       .  S
C52        C1134   1.473       .  S
O53       Ni1341   1.922       .  S
O53          C63   1.282       .  A
O54         Ni61   1.922       .  S
O54          C64   1.283       .  A
O55         Ni61   1.912       .  S
O55          C65   1.281       .  A
O56       Ni1341   1.910       .  S
O56          C66   1.280       .  A
O57       Ni1342   1.913       .  S
O57          C66   1.280       .  A
O58         Ni62   1.914       .  S
O58          C65   1.281       .  A
O59         Ni62   1.924       .  S
O59          C64   1.283       .  A
O60       Ni1342   1.927       .  S
O60          C63   1.283       .  A
Ni61       O1333   1.922   1_554  S
Ni61       O1336   1.910   1_554  S
Ni61        Ni62   2.387       .  S
Ni62       O1337   1.913   1_554  S
Ni62       O1340   1.927   1_554  S
C63        C1174   1.487       .  S
C64        C1054   1.486       .  S
C65        C1194   1.476       .  S
C66        C1074   1.470       .  S
C67          C68   1.536       .  S
C67          C73   1.527   1_554  S
C67          C71   1.531       .  S
C67        C1005   1.523       .  S
C68          H75   1.081       .  S
C68          C69   1.364   1_554  D
C69        C1350   1.547       .  S
C69        C1205   1.483       .  S
C70          C74   1.548       .  S
C70        C1349   1.547       .  S
C70        C1352   1.550       .  S
C70          H76   1.109       .  S
C71          H77   1.085       .  S
C71          C72   1.370   1_554  D
C72        C1350   1.550       .  S
C72         C985   1.495       .  S
C73          H78   1.087       .  S
C73        C1354   1.363       .  D
C74        C1353   1.363       .  D
C74        C1034   1.482       .  S
O79         Ni87   1.914       .  S
O79          C89   1.281       .  A
O80         Ni87   1.916       .  S
O80          C90   1.282       .  A
O81         Ni87   1.910       .  S
O81          C91   1.280       .  A
O82         Ni87   1.911       .  S
O82          C92   1.281       .  A
O83         Ni88   1.913       .  S
O83          C92   1.281       .  A
O84         Ni88   1.912       .  S
O84          C91   1.281       .  A
O85         Ni88   1.928       .  S
O85          C90   1.284       .  A
O86         Ni88   1.928       .  S
O86          C89   1.284       .  A
Ni87        Ni88   2.387       .  S
C89         C945   1.485       .  S
C90        C1025   1.487       .  S
C91        C1014   1.474       .  S
C92         C965   1.474       .  S
C93          C94   1.538       .  S
C93          C99   1.531       .  S
C93          C97   1.529       .  S
C93         C905   1.522       .  S
C94         H101   1.081       .  S
C94        C1375   1.365       .  D
C95          C96   1.544   1_556  S
C95        C1374   1.365       .  D
C95         C885   1.481       .  S
C96         C100   1.547       .  S
C96          C98   1.542   1_554  S
C96         H102   1.111       .  S
C97         H103   1.087       .  S
C97        C1378   1.365       .  D
C98        C1377   1.365       .  D
C98         C874   1.479       .  S
C99        H1384   1.087       .  S
C99        C1380   1.365       .  D
C100       C1379   1.365   1_554  D
C100        C925   1.485       .  S
H104       C1379   1.087       .  S
O105       Ni113   1.927       .  S
O105        C115   1.284       .  A
O106       Ni113   1.926       .  S
O106        C116   1.284       .  A
O107       Ni113   1.909       .  S
O107        C117   1.280       .  A
O108       Ni113   1.905       .  S
O108        C118   1.279       .  A
O109       Ni114   1.913       .  S
O109        C118   1.282       .  A
O110       Ni114   1.914       .  S
O110        C117   1.281       .  A
O111       Ni114   1.920       .  S
O111        C116   1.282       .  A
O112       Ni114   1.916       .  S
O112        C115   1.282       .  A
Ni113      Ni114   2.387       .  S
C115        C934   1.487       .  S
C116        C825   1.486       .  S
C117        C845   1.473       .  S
C118        C914   1.473       .  S
O119      Ni1407   1.919       .  S
O119        C129   1.282       .  A
O120       Ni127   1.920   1_554  S
O120        C130   1.282       .  A
O121       Ni127   1.912   1_554  S
O121        C131   1.281       .  A
O122      Ni1407   1.912       .  S
O122        C132   1.281       .  A
O123      Ni1408   1.912       .  S
O123        C132   1.281       .  A
O124       Ni128   1.911   1_554  S
O124        C131   1.280       .  A
O125       Ni128   1.924   1_554  S
O125        C130   1.283       .  A
O126      Ni1408   1.924       .  S
O126        C129   1.283       .  A
Ni127      O1399   1.919       .  S
Ni127      O1402   1.912       .  S
Ni127      Ni128   2.387       .  S
Ni128      O1403   1.912       .  S
Ni128      O1406   1.924       .  S
C129        C834   1.485       .  S
C130        C954   1.485       .  S
C131        C854   1.474       .  S
C132        C974   1.474       .  S
C133        C134   1.534       .  S
C133        C139   1.528       .  S
C133        C137   1.528       .  S
C133        C785   1.526       .  S
C134        H141   1.079       .  S
C134       C1415   1.368       .  D
C135        C136   1.552       .  S
C135       C1414   1.368   1_554  D
C135       C1105   1.496       .  S
C136        C140   1.548       .  S
C136        C138   1.553       .  S
C136        H142   1.109       .  S
C137        H143   1.085       .  S
C137       C1418   1.370       .  D
C138       C1417   1.370   1_554  D
C138        C765   1.494       .  S
C139       H1424   1.087       .  S
C139       C1420   1.362       .  D
C140       C1419   1.362       .  D
C140        C805   1.483       .  S
H144       C1419   1.087       .  S
O145       Ni153   1.924       .  S
O145        C155   1.283       .  A
O146       Ni153   1.924       .  S
O146        C156   1.283       .  A
O147       Ni153   1.922       .  S
O147        C157   1.283       .  A
O148       Ni153   1.915       .  S
O148        C158   1.281       .  A
O149       Ni154   1.912       .  S
O149        C158   1.281       .  A
O150       Ni154   1.911       .  S
O150        C157   1.280       .  A
O151       Ni154   1.925       .  S
O151        C156   1.283       .  A
O152       Ni154   1.926       .  S
O152        C155   1.283       .  A
Ni153      Ni154   2.386       .  S
C155        C814   1.490       .  S
C156        C734   1.486       .  S
C157        C745   1.479       .  S
C158        C794   1.476       .  S
C159        C160   1.537       .  S
C159        C165   1.524   1_554  S
C159        C163   1.533       .  S
C159        C694   1.520       .  S
C160        H167   1.080       .  S
C160        C161   1.367       .  D
C161       C1442   1.547   1_554  S
C161        C674   1.486       .  S
C162        C166   1.547       .  S
C162       C1441   1.547       .  S
C162       C1444   1.543       .  S
C162        H168   1.110       .  S
C163        H169   1.087       .  S
C163        C164   1.365       .  D
C164       C1442   1.543   1_554  S
C164        C654   1.482       .  S
C165        H170   1.087       .  S
C165       C1446   1.363       .  D
C166       C1445   1.363       .  D
C166        C705   1.481       .  S
O171       Ni179   1.923       .  S
O171        C181   1.283       .  A
O172       Ni179   1.925       .  S
O172        C182   1.283       .  A
O173       Ni179   1.911       .  S
O173        C183   1.280       .  A
O174       Ni179   1.914       .  S
O174        C184   1.281       .  A
O175       Ni180   1.913       .  S
O175        C184   1.281       .  A
O176       Ni180   1.909       .  S
O176        C183   1.280       .  A
O177       Ni180   1.917       .  S
O177        C182   1.282       .  A
O178       Ni180   1.920       .  S
O178        C181   1.282       .  A
Ni179      Ni180   2.387       .  S
C181        C605   1.484       .  S
C182        C714   1.485       .  S
C183        C685   1.473       .  S
C184        C634   1.473       .  S
O185       Ni193   1.923       .  S
O185        C195   1.283       .  A
O186      Ni1473   1.926       .  S
O186        C196   1.283       .  A
O187      Ni1473   1.916       .  S
O187        C197   1.282       .  A
O188       Ni193   1.918       .  S
O188        C198   1.282       .  A
O189       Ni194   1.915       .  S
O189        C198   1.281       .  A
O190      Ni1474   1.916       .  S
O190        C197   1.281       .  A
O191      Ni1474   1.923       .  S
O191        C196   1.283       .  A
O192       Ni194   1.922       .  S
O192        C195   1.282       .  A
Ni193      O1466   1.926   1_554  S
Ni193      O1467   1.916   1_554  S
Ni193      Ni194   2.386       .  S
Ni194      O1470   1.916   1_554  S
Ni194      O1471   1.923   1_554  S
C195        C614   1.486       .  S
C196        C725   1.489       .  S
C197        C625   1.480       .  S
C198        C754   1.479       .  S
C199        C200   1.541       .  S
C199        C205   1.528       .  S
C199        C203   1.532       .  S
C199        C565   1.522       .  S
C200        H207   1.080       .  S
C200        C201   1.371       .  D
C201       C1482   1.546   1_554  S
C201        C894   1.487       .  S
C202        C206   1.542       .  S
C202       C1481   1.546       .  S
C202       C1484   1.538       .  S
C202        H208   1.110       .  S
C203        H209   1.087       .  S
C203        C204   1.363       .  D
C204       C1482   1.538   1_554  S
C204        C554   1.478       .  S
C205        H210   1.087       .  S
C205       C1486   1.362   1_554  D
C206       C1485   1.362       .  D
C206        C585   1.481       .  S
O211       Ni219   1.921       .  S
O211        C221   1.283       .  A
O212       Ni219   1.923       .  S
O212        C222   1.282       .  A
O213       Ni219   1.914       .  S
O213        C223   1.281       .  A
O214       Ni219   1.917       .  S
O214        C224   1.281       .  A
O215       Ni220   1.913       .  S
O215        C224   1.281       .  A
O216       Ni220   1.911       .  S
O216        C223   1.281       .  A
O217       Ni220   1.917       .  S
O217        C222   1.282       .  A
O218       Ni220   1.921       .  S
O218        C221   1.282       .  A
Ni219      Ni220   2.387       .  S
C221        C505   1.483       .  S
C222        C594   1.483       .  S
C223        C574   1.476       .  S
C224        C525   1.475       .  S
C225        C226   1.537       .  S
C225        C231   1.525       .  S
C225        C229   1.534       .  S
C225        C465   1.521       .  S
C226        H233   1.082       .  S
C226       C1507   1.364       .  D
C227        C228   1.542       .  S
C227       C1506   1.364   1_554  D
C227        C665   1.478       .  S
C228        C232   1.547       .  S
C228        C230   1.546       .  S
C228        H234   1.110       .  S
C229        H235   1.086       .  S
C229       C1510   1.369       .  D
C230       C1509   1.369   1_554  D
C230        C454   1.486       .  S
C231       H1516   1.087       .  S
C231       C1512   1.364       .  D
C232       C1511   1.364       .  D
C232        C485   1.485       .  S
H236       C1511   1.087       .  S
O237       Ni245   1.922       .  S
O237        C247   1.283       .  A
O238       Ni245   1.924       .  S
O238        C248   1.283       .  A
O239       Ni245   1.906       .  S
O239        C249   1.280       .  A
O240       Ni245   1.910       .  S
O240        C250   1.280       .  A
O241       Ni246   1.914       .  S
O241        C250   1.281       .  A
O242       Ni246   1.914       .  S
O242        C249   1.281       .  A
O243       Ni246   1.920       .  S
O243        C248   1.282       .  A
O244       Ni246   1.920       .  S
O244        C247   1.282       .  A
Ni245      Ni246   2.387       .  S
C247        C414   1.484       .  S
C248        C494   1.487       .  S
C249        C474   1.473       .  S
C250        C434   1.474       .  S
O251      Ni1539   1.916       .  S
O251        C261   1.281       .  A
O252       Ni259   1.917       .  S
O252        C262   1.282       .  A
O253       Ni259   1.910       .  S
O253        C263   1.280       .  A
O254      Ni1539   1.913       .  S
O254        C264   1.281       .  A
O255      Ni1540   1.916       .  S
O255        C264   1.281       .  A
O256       Ni260   1.914       .  S
O256        C263   1.281       .  A
O257       Ni260   1.927       .  S
O257        C262   1.284       .  A
O258      Ni1540   1.925       .  S
O258        C261   1.283       .  A
Ni259      O1531   1.916   1_554  S
Ni259      O1534   1.913   1_554  S
Ni259      Ni260   2.387       .  S
Ni260      O1535   1.916   1_554  S
Ni260      O1538   1.925   1_554  S
C261        C405   1.484       .  S
C262        C514   1.486       .  S
C263        C425   1.472       .  S
C264        C534   1.477       .  S
O265       Ni273   1.918       .  S
O265       C1555   1.281       .  A
O266       Ni273   1.917   1_565  S
O266       C1556   1.281       .  A
O267       Ni273   1.924       .  S
O267       C1557   1.283       .  A
O268       Ni273   1.924   1_565  S
O268       C1558   1.284       .  A
O269       Ni274   1.915   1_565  S
O269        C278   1.281       .  A
O270       Ni274   1.917       .  S
O270        C277   1.281       .  A
O271       Ni274   1.918   1_565  S
O271        C276   1.282       .  A
O272       Ni274   1.920       .  S
O272        C275   1.282       .  A
Ni273     Ni1554   2.386       .  S
Ni274     Ni1553   2.386   1_554  S
C275       O1545   1.281   1_554  A
C275        C645   1.481       .  S
C276       O1546   1.281   1_554  A
C276        C394   1.482       .  S
C277       O1547   1.283   1_554  A
C277        C374   1.483       .  S
C278       O1548   1.284   1_554  A
C278        C865   1.483       .  S
O279       Ni287   1.913       .  S
O279       C1569   1.281       .  A
O280       Ni287   1.914   1_655  S
O280       C1570   1.280       .  A
O281       Ni287   1.926       .  S
O281       C1571   1.284       .  A
O282       Ni287   1.925   1_655  S
O282       C1572   1.283       .  A
O283       Ni288   1.906   1_655  S
O283        C292   1.279   1_554  A
O284       Ni288   1.906       .  S
O284        C291   1.279       .  A
O285       Ni288   1.926   1_655  S
O285        C290   1.284       .  A
O286       Ni288   1.926       .  S
O286        C289   1.284       .  A
Ni287     Ni1568   2.386       .  S
Ni288     Ni1567   2.386   1_554  S
C289       O1559   1.281   1_554  A
C289        C365   1.484       .  S
C290       O1560   1.280   1_554  A
C290       C1085   1.481       .  S
C291       O1561   1.284   1_554  A
C291        C445   1.479       .  S
C292       O1562   1.283       .  A
C292        C354   1.479       .  S
O293       Ni301   1.907   1_655  S
O293       C1583   1.279       .  A
O294       Ni301   1.909       .  S
O294       C1584   1.280       .  A
O295       Ni301   1.924   1_655  S
O295       C1585   1.283       .  A
O296       Ni301   1.921       .  S
O296       C1586   1.282       .  A
O297       Ni302   1.913       .  S
O297        C306   1.280       .  A
O298       Ni302   1.915   1_655  S
O298        C305   1.281       .  A
O299       Ni302   1.921       .  S
O299        C304   1.283       .  A
O300       Ni302   1.923   1_655  S
O300        C303   1.283       .  A
Ni301     Ni1582   2.387       .  S
Ni302     Ni1581   2.387   1_554  S
C303       O1573   1.279   1_554  A
C303        C325   1.478       .  S
C304       O1574   1.280   1_554  A
C304        C545   1.476       .  S
C305       O1575   1.283   1_554  A
C305       C1234   1.483       .  S
C306       O1576   1.282   1_554  A
C306        C385   1.475       .  S
O307       Ni315   1.908       .  S
O307       C1597   1.279       .  A
O308       Ni315   1.905   1_545  S
O308       C1598   1.279       .  A
O309       Ni315   1.929       .  S
O309       C1599   1.284       .  A
O310       Ni315   1.928   1_545  S
O310       C1600   1.285       .  A
O311       Ni316   1.905   1_545  S
O311        C320   1.279       .  A
O312       Ni316   1.903       .  S
O312        C319   1.279   1_554  A
O313       Ni316   1.925   1_545  S
O313        C318   1.284   1_554  A
O314       Ni316   1.927       .  S
O314        C317   1.284   1_554  A
Ni315     Ni1596   2.387       .  S
Ni316     Ni1595   2.387   1_554  S
C317       O1587   1.279       .  A
C317        C994   1.481       .  S
C318       O1588   1.279       .  A
C318        C345   1.477       .  S
C319       O1589   1.284       .  A
C319        C334   1.479       .  S
C320       O1590   1.285   1_554  A
C320        C774   1.481       .  S
C321        C322   1.408       .  A
C321        C326   1.398       .  A
C321        H331   1.083       .  S
C322        C327   1.487       .  S
C322       C1603   1.405   1_554  A
C323        C324   1.397       .  A
C323       C1602   1.405       .  A
C323        H328   1.083       .  S
C324       C1605   1.406       .  A
C324        H329   1.083       .  S
C325        C326   1.403       .  A
C325       C1604   1.406   1_554  A
C326        H330   1.083       .  S
C327        C332   1.404       .  A
C327       C1616   1.409   1_554  A
C332        C333   1.393       .  A
C332        H337   1.083       .  S
C333        C334   1.405   1_554  A
C333        H338   1.083       .  S
C334       C1615   1.404       .  A
C335        C336   1.401       .  A
C335       C1614   1.404       .  A
C335        H339   1.083       .  S
C336       C1607   1.409       .  A
C336        H340   1.083       .  S
C341        C342   1.408   1_554  A
C341        C346   1.397       .  A
C341        H351   1.082       .  S
C342        C347   1.486       .  S
C342       C1623   1.405       .  A
C343        C344   1.396       .  A
C343       C1622   1.405       .  A
C343        H348   1.083       .  S
C344       C1625   1.406       .  A
C344        H349   1.083       .  S
C345        C346   1.402   1_556  A
C345       C1624   1.406       .  A
C346        H350   1.083       .  S
C347        C352   1.404   1_556  A
C347        C356   1.408       .  A
C352        C353   1.394       .  A
C352        H357   1.083       .  S
C353        C354   1.405   1_554  A
C353        H358   1.083       .  S
C354        C355   1.404       .  A
C355        C356   1.400       .  A
C355       H1639   1.083       .  S
C356       H1640   1.082       .  S
H359       C1635   1.083       .  S
H360       C1636   1.082       .  S
C361        C366   1.398       .  A
C361       C1642   1.407       .  A
C361        H371   1.082       .  S
C362        C367   1.495       .  S
C362        C363   1.409       .  A
C362       C1641   1.407   1_554  A
C363        C364   1.401       .  A
C363        H368   1.082       .  S
C364        C365   1.405       .  A
C364        H369   1.083       .  S
C365       C1646   1.406   1_554  A
C366       C1645   1.406       .  A
C366        H370   1.083       .  S
C367        C372   1.409   1_554  A
C367        C376   1.407       .  A
C372        C373   1.400       .  A
C372        H377   1.082       .  S
C373        C374   1.404   1_556  A
C373        H378   1.083       .  S
C374        C375   1.405       .  A
C375        C376   1.399       .  A
C375        H379   1.083       .  S
C376        H380   1.082       .  S
C381        C386   1.399       .  A
C381       C1662   1.409       .  A
C381        H391   1.082       .  S
C382        C387   1.493       .  S
C382        C383   1.408       .  A
C382       C1661   1.409   1_554  A
C383        C384   1.396       .  A
C383        H388   1.082       .  S
C384        C385   1.403       .  A
C384        H389   1.083       .  S
C385       C1666   1.403   1_554  A
C386       C1665   1.403       .  A
C386        H390   1.083       .  S
C387        C396   1.408       .  A
C387       C1672   1.408   1_554  A
C392        C393   1.399       .  A
C392       C1667   1.408       .  A
C392        H397   1.082       .  S
C393       C1674   1.406       .  A
C393        H398   1.083       .  S
C394        C395   1.404       .  A
C394       C1673   1.406   1_554  A
C395        C396   1.396       .  A
C395        H399   1.083       .  S
C396        H400   1.082       .  S
C401        C402   1.408       .  A
C401        C406   1.399       .  A
C401        H411   1.082       .  S
C402        C407   1.495       .  S
C402        C403   1.409       .  A
C403        C404   1.401       .  A
C403        H408   1.082       .  S
C404        C405   1.405       .  A
C404        H409   1.083       .  S
C405        C406   1.406       .  A
C406        H410   1.083       .  S
C407        C412   1.408       .  A
C407        C416   1.408       .  A
C412        C413   1.399       .  A
C412        H417   1.082       .  S
C413        C414   1.405       .  A
C413        H418   1.083       .  S
C414        C415   1.405       .  A
C415        C416   1.400       .  A
C415        H419   1.083       .  S
C416        H420   1.082       .  S
C421        C422   1.405       .  A
C421        C426   1.394       .  A
C421        H431   1.083       .  S
C422        C427   1.481       .  S
C422        C423   1.406       .  A
C423        C424   1.397       .  A
C423        H428   1.083       .  S
C424        C425   1.404       .  A
C424        H429   1.083       .  S
C425        C426   1.403       .  A
C426        H430   1.083       .  S
C427        C432   1.406       .  A
C427        C436   1.405       .  A
C432        C433   1.395       .  A
C432        H437   1.083       .  S
C433        C434   1.403       .  A
C433        H438   1.083       .  S
C434        C435   1.405       .  A
C435        C436   1.395       .  A
C435        H439   1.083       .  S
C436        H440   1.083       .  S
C441        C442   1.402       .  A
C441        C446   1.397       .  A
C441        H451   1.083       .  S
C442        C447   1.479       .  S
C442        C443   1.406   1_554  A
C443        C444   1.399       .  A
C443       H1728   1.083       .  S
C444        C445   1.404   1_556  A
C444        H449   1.083       .  S
C445        C446   1.407       .  A
C446        H450   1.083       .  S
C447        C456   1.405       .  A
C447       C1732   1.402       .  A
H448       C1723   1.083       .  S
C452        C453   1.396       .  A
C452       C1727   1.402       .  A
C452        H457   1.083       .  S
C453       C1734   1.407       .  A
C453        H458   1.083       .  S
C454        C455   1.405       .  A
C454       C1733   1.407       .  A
C455        C456   1.400       .  A
C455        H459   1.082       .  S
C456        H460   1.083       .  S
C461        C462   1.402       .  A
C461        C466   1.394       .  A
C461        H471   1.083       .  S
C462        C467   1.476       .  S
C462        C463   1.401       .  A
C463        C464   1.394       .  A
C463        H468   1.083       .  S
C464        C465   1.410       .  A
C464        H469   1.077       .  S
C465        C466   1.408       .  A
C466        H470   1.083       .  S
C467        C472   1.403       .  A
C467        C476   1.404       .  A
C472        C473   1.393       .  A
C472        H477   1.083       .  S
C473        C474   1.405       .  A
C473        H478   1.083       .  S
C474        C475   1.404       .  A
C475        C476   1.395       .  A
C475        H479   1.083       .  S
C476        H480   1.083       .  S
C481        C482   1.406       .  A
C481        C486   1.395       .  A
C481        H491   1.082       .  S
C482        C487   1.493       .  S
C482        C483   1.411       .  A
C483        C484   1.405       .  A
C483        H488   1.083       .  S
C484        C485   1.403       .  A
C484        H489   1.083       .  S
C485        C486   1.405       .  A
C486        H490   1.083       .  S
C487        C492   1.408       .  A
C487        C496   1.407       .  A
C492        C493   1.399       .  A
C492        H497   1.083       .  S
C493        C494   1.406       .  A
C493        H498   1.083       .  S
C494        C495   1.407       .  A
C495        C496   1.401       .  A
C495        H499   1.083       .  S
C496        H500   1.083       .  S
C501        C502   1.408       .  A
C501        C506   1.399       .  A
C501        H511   1.082       .  S
C502        C507   1.496       .  S
C502        C503   1.409       .  A
C503        C504   1.401       .  A
C503        H508   1.082       .  S
C504        C505   1.405       .  A
C504        H509   1.083       .  S
C505        C506   1.405       .  A
C506        H510   1.083       .  S
C507        C512   1.409       .  A
C507        C516   1.407       .  A
C512        C513   1.401       .  A
C512        H517   1.082       .  S
C513        C514   1.405       .  A
C513        H518   1.083       .  S
C514        C515   1.406       .  A
C515        C516   1.399       .  A
C515        H519   1.083       .  S
C516        H520   1.082       .  S
C521        C522   1.406       .  A
C521        C526   1.398       .  A
C521        H531   1.083       .  S
C522        C527   1.483       .  S
C522        C523   1.405       .  A
C523        C524   1.395       .  A
C523        H528   1.083       .  S
C524        C525   1.404       .  A
C524        H529   1.083       .  S
C525        C526   1.404       .  A
C526        H530   1.083       .  S
C527        C532   1.405       .  A
C527        C536   1.405       .  A
C532        C533   1.398       .  A
C532        H537   1.083       .  S
C533        C534   1.405       .  A
C533        H538   1.083       .  S
C534        C535   1.404       .  A
C535        C536   1.395       .  A
C535        H539   1.083       .  S
C536        H540   1.083       .  S
C541        C542   1.409       .  A
C541        C546   1.397       .  A
C541        H551   1.082       .  S
C542        C547   1.487       .  S
C542       C1823   1.405   1_554  A
C543        C544   1.397       .  A
C543       C1822   1.405       .  A
C543        H548   1.083       .  S
C544       C1825   1.406       .  A
C544        H549   1.083       .  S
C545        C546   1.402       .  A
C545       C1824   1.406   1_554  A
C546        H550   1.083       .  S
C547        C552   1.404       .  A
C547        C556   1.410   1_554  A
C552        C553   1.393       .  A
C552        H557   1.083       .  S
C553        C554   1.403       .  A
C553        H558   1.083       .  S
C554        C555   1.401   1_554  A
C555        C556   1.401       .  A
C555       H1839   1.082       .  S
C556       H1840   1.082       .  S
H559       C1835   1.082       .  S
H560       C1836   1.082       .  S
C561        C562   1.402       .  A
C561        C566   1.393       .  A
C561        H571   1.083       .  S
C562        C567   1.480       .  S
C562        C563   1.404       .  A
C563        C564   1.397       .  A
C563        H568   1.083       .  S
C564        C565   1.409       .  A
C564        H569   1.077       .  S
C565        C566   1.409       .  A
C566        H570   1.083       .  S
C567        C572   1.405       .  A
C567        C576   1.404       .  A
C572        C573   1.395       .  A
C572        H577   1.083       .  S
C573        C574   1.405       .  A
C573        H578   1.083       .  S
C574        C575   1.405       .  A
C575        C576   1.395       .  A
C575        H579   1.083       .  S
C576        H580   1.083       .  S
C581        C582   1.408       .  A
C581        C586   1.404       .  A
C581        H591   1.083       .  S
C582        C587   1.485       .  S
C582        C583   1.404       .  A
C583        C584   1.394       .  A
C583        H588   1.083       .  S
C584        C585   1.403       .  A
C584        H589   1.083       .  S
C585        C586   1.403       .  A
C586        H590   1.082       .  S
C587        C592   1.406       .  A
C587        C596   1.405       .  A
C592        C593   1.401       .  A
C592        H597   1.083       .  S
C593        C594   1.407       .  A
C593        H598   1.083       .  S
C594        C595   1.406       .  A
C595        C596   1.397       .  A
C595        H599   1.083       .  S
C596        H600   1.083       .  S
C601        C602   1.408       .  A
C601        C606   1.400       .  A
C601        H611   1.082       .  S
C602        C607   1.495       .  S
C602        C603   1.408       .  A
C603        C604   1.400       .  A
C603        H608   1.082       .  S
C604        C605   1.405       .  A
C604        H609   1.083       .  S
C605        C606   1.405       .  A
C606        H610   1.083       .  S
C607        C612   1.408       .  A
C607        C616   1.408       .  A
C612        C613   1.401       .  A
C612        H617   1.082       .  S
C613        C614   1.406       .  A
C613        H618   1.083       .  S
C614        C615   1.406       .  A
C615        C616   1.400       .  A
C615        H619   1.083       .  S
C616        H620   1.082       .  S
C621        C622   1.407       .  A
C621        C626   1.397       .  A
C621        H631   1.082       .  S
C622        C627   1.488       .  S
C622        C623   1.407       .  A
C623        C624   1.397       .  A
C623        H628   1.083       .  S
C624        C625   1.405       .  A
C624        H629   1.083       .  S
C625        C626   1.405       .  A
C626        H630   1.083       .  S
C627        C632   1.407       .  A
C627        C636   1.407       .  A
C632        C633   1.397       .  A
C632        H637   1.083       .  S
C633        C634   1.403       .  A
C633        H638   1.083       .  S
C634        C635   1.403       .  A
C635        C636   1.396       .  A
C635        H639   1.083       .  S
C636        H640   1.082       .  S
C641        C646   1.400       .  A
C641       C1922   1.408       .  A
C641        H651   1.082       .  S
C642        C647   1.496       .  S
C642        C643   1.410       .  A
C642       C1921   1.408   1_554  A
C643        C644   1.398       .  A
C643        H648   1.082       .  S
C644        C645   1.403       .  A
C644        H649   1.083       .  S
C645       C1926   1.405   1_554  A
C646       C1925   1.405       .  A
C646        H650   1.083       .  S
C647        C652   1.412   1_554  A
C647        C656   1.407       .  A
C652        C653   1.403       .  A
C652        H657   1.082       .  S
C653        C654   1.401   1_556  A
C653        H658   1.082       .  S
C654        C655   1.404       .  A
C655        C656   1.394       .  A
C655        H659   1.083       .  S
C656        H660   1.082       .  S
C661        C662   1.409       .  A
C661        C666   1.400       .  A
C661        H671   1.083       .  S
C662        C667   1.482       .  S
C662       C1943   1.402   1_554  A
C663        C664   1.396       .  A
C663       C1942   1.402       .  A
C663        H668   1.083       .  S
C664       C1945   1.406       .  A
C664        H669   1.083       .  S
C665        C666   1.400       .  A
C665       C1944   1.406   1_554  A
C666        H670   1.083       .  S
C667        C672   1.402       .  A
C667       C1956   1.407   1_554  A
C672        C673   1.392       .  A
C672        H677   1.083       .  S
C673        C674   1.406       .  A
C673        H678   1.083       .  S
C674       C1955   1.405   1_554  A
C675        C676   1.404       .  A
C675       C1954   1.405       .  A
C675        H679   1.083       .  S
C676       C1947   1.407       .  A
C676        H680   1.083       .  S
C681        C682   1.404       .  A
C681        C686   1.395       .  A
C681        H691   1.083       .  S
C682        C687   1.476       .  S
C682        C683   1.403       .  A
C683        C684   1.393       .  A
C683        H688   1.083       .  S
C684        C685   1.404       .  A
C684        H689   1.083       .  S
C685        C686   1.405       .  A
C686        H690   1.083       .  S
C687        C692   1.402       .  A
C687        C696   1.402       .  A
C692        C693   1.394       .  A
C692        H697   1.083       .  S
C693        C694   1.408       .  A
C693        H698   1.083       .  S
C694        C695   1.409       .  A
C695        C696   1.392       .  A
C695        H699   1.076       .  S
C696        H700   1.083       .  S
C701        C702   1.406       .  A
C701        C706   1.395       .  A
C701        H711   1.083       .  S
C702        C707   1.490       .  S
C702        C703   1.409       .  A
C703        C704   1.404       .  A
C703        H708   1.083       .  S
C704        C705   1.402       .  A
C704        H709   1.082       .  S
C705        C706   1.404       .  A
C706        H710   1.083       .  S
C707        C712   1.406       .  A
C707        C716   1.407       .  A
C712        C713   1.398       .  A
C712        H717   1.083       .  S
C713        C714   1.406       .  A
C713        H718   1.083       .  S
C714        C715   1.406       .  A
C715        C716   1.401       .  A
C715        H719   1.083       .  S
C716        H720   1.083       .  S
C721        C722   1.408       .  A
C721        C726   1.401       .  A
C721        H731   1.082       .  S
C722        C727   1.498       .  S
C722        C723   1.409       .  A
C723        C724   1.401       .  A
C723        H728   1.082       .  S
C724        C725   1.406       .  A
C724        H729   1.083       .  S
C725        C726   1.407       .  A
C726        H730   1.083       .  S
C727        C732   1.409       .  A
C727        C736   1.409       .  A
C732        C733   1.402       .  A
C732        H737   1.082       .  S
C733        C734   1.406       .  A
C733        H738   1.083       .  S
C734        C735   1.405       .  A
C735        C736   1.401       .  A
C735        H739   1.083       .  S
C736        H740   1.082       .  S
C741        C742   1.408       .  A
C741        C746   1.398       .  A
C741        H751   1.082       .  S
C742        C747   1.490       .  S
C742        C743   1.407       .  A
C743        C744   1.397       .  A
C743        H748   1.082       .  S
C744        C745   1.405       .  A
C744        H749   1.083       .  S
C745        C746   1.404       .  A
C746        H750   1.083       .  S
C747        C752   1.407       .  A
C747        C756   1.408       .  A
C752        C753   1.397       .  A
C752        H757   1.082       .  S
C753        C754   1.404       .  A
C753        H758   1.083       .  S
C754        C755   1.404       .  A
C755        C756   1.398       .  A
C755        H759   1.083       .  S
C756        H760   1.082       .  S
C761        C762   1.405       .  A
C761        C766   1.403       .  A
C761        H771   1.083       .  S
C762        C767   1.481       .  S
C762       C2043   1.400   1_554  A
C763        C764   1.394       .  A
C763       C2042   1.400       .  A
C763        H768   1.083       .  S
C764       C2045   1.409       .  A
C764        H769   1.082       .  S
C765        C766   1.406       .  A
C765       C2044   1.409   1_554  A
C766        H770   1.076       .  S
C767        C776   1.401       .  A
C767       C2052   1.406   1_554  A
C772        C773   1.399       .  A
C772       C2047   1.406       .  A
C772        H777   1.083       .  S
C773       C2054   1.404       .  A
C773        H778   1.083       .  S
C774        C775   1.409       .  A
C774       C2053   1.404   1_554  A
C775        C776   1.398       .  A
C775        H779   1.083       .  S
C776        H780   1.083       .  S
C781        C782   1.403       .  A
C781        C786   1.396       .  A
C781        H791   1.083       .  S
C782        C787   1.482       .  S
C782        C783   1.403       .  A
C783        C784   1.394       .  A
C783        H788   1.083       .  S
C784        C785   1.410       .  A
C784        H789   1.076       .  S
C785        C786   1.409       .  A
C786        H790   1.083       .  S
C787        C792   1.405       .  A
C787        C796   1.405       .  A
C792        C793   1.397       .  A
C792        H797   1.083       .  S
C793        C794   1.405       .  A
C793        H798   1.083       .  S
C794        C795   1.404       .  A
C795        C796   1.395       .  A
C795        H799   1.083       .  S
C796        H800   1.083       .  S
C801        C802   1.406       .  A
C801        C806   1.397       .  A
C801        H811   1.083       .  S
C802        C807   1.495       .  S
C802        C803   1.411       .  A
C803        C804   1.406       .  A
C803        H808   1.083       .  S
C804        C805   1.402       .  A
C804        H809   1.083       .  S
C805        C806   1.404       .  A
C806        H810   1.084       .  S
C807        C812   1.407       .  A
C807        C816   1.408       .  A
C812        C813   1.403       .  A
C812        H817   1.083       .  S
C813        C814   1.407       .  A
C813        H818   1.083       .  S
C814        C815   1.407       .  A
C815        C816   1.401       .  A
C815        H819   1.083       .  S
C816        H820   1.083       .  S
C821        C822   1.409       .  A
C821        C826   1.401       .  A
C821        H831   1.082       .  S
C822        C827   1.498       .  S
C822        C823   1.409       .  A
C823        C824   1.400       .  A
C823        H828   1.082       .  S
C824        C825   1.405       .  A
C824        H829   1.083       .  S
C825        C826   1.406       .  A
C826        H830   1.083       .  S
C827        C832   1.409       .  A
C827        C836   1.409       .  A
C832        C833   1.400       .  A
C832        H837   1.082       .  S
C833        C834   1.406       .  A
C833        H838   1.083       .  S
C834        C835   1.405       .  A
C835        C836   1.401       .  A
C835        H839   1.083       .  S
C836        H840   1.082       .  S
C841        C842   1.406       .  A
C841        C846   1.394       .  A
C841        H851   1.083       .  S
C842        C847   1.484       .  S
C842        C843   1.407       .  A
C843        C844   1.396       .  A
C843        H848   1.083       .  S
C844        C845   1.403       .  A
C844        H849   1.083       .  S
C845        C846   1.403       .  A
C846        H850   1.083       .  S
C847        C852   1.406       .  A
C847        C856   1.406       .  A
C852        C853   1.395       .  A
C852        H857   1.083       .  S
C853        C854   1.404       .  A
C853        H858   1.083       .  S
C854        C855   1.404       .  A
C855        C856   1.395       .  A
C855        H859   1.083       .  S
C856        H860   1.082       .  S
C861        C862   1.406   1_554  A
C861        C866   1.400       .  A
C861        H871   1.082       .  S
C862        C867   1.492       .  S
C862       C2143   1.409       .  A
C863        C864   1.397       .  A
C863       C2142   1.409       .  A
C863        H868   1.082       .  S
C864       C2145   1.403       .  A
C864        H869   1.083       .  S
C865        C866   1.407       .  A
C865       C2144   1.403   1_554  A
C866        H870   1.083       .  S
C867        C872   1.411   1_556  A
C867       C2156   1.406       .  A
C872        C873   1.404       .  A
C872        H877   1.082       .  S
C873        C874   1.401   1_554  A
C873        H878   1.083       .  S
C874       C2155   1.403       .  A
C875        C876   1.393       .  A
C875       C2154   1.403       .  A
C875        H879   1.084       .  S
C876       C2147   1.406       .  A
C876        H880   1.082       .  S
C881        C882   1.408       .  A
C881        C886   1.402       .  A
C881        H891   1.083       .  S
C882        C887   1.480       .  S
C882       C2163   1.401   1_554  A
C883        C884   1.393       .  A
C883       C2162   1.401       .  A
C883        H888   1.083       .  S
C884       C2165   1.406       .  A
C884        H889   1.083       .  S
C885        C886   1.402   1_556  A
C885       C2164   1.406       .  A
C886        H890   1.083       .  S
C887        C892   1.402       .  A
C887        C896   1.405   1_554  A
C892        C893   1.396       .  A
C892        H897   1.083       .  S
C893        C894   1.407       .  A
C893        H898   1.082       .  S
C894        C895   1.405   1_554  A
C895        C896   1.399       .  A
C895       H2179   1.082       .  S
C896       H2180   1.083       .  S
H899       C2175   1.082       .  S
H900       C2176   1.083       .  S
C901        C902   1.403       .  A
C901        C906   1.394       .  A
C901        H911   1.083       .  S
C902        C907   1.478       .  S
C902        C903   1.402       .  A
C903        C904   1.394       .  A
C903        H908   1.083       .  S
C904        C905   1.410       .  A
C904        H909   1.076       .  S
C905        C906   1.408       .  A
C906        H910   1.083       .  S
C907        C912   1.404       .  A
C907        C916   1.405       .  A
C912        C913   1.395       .  A
C912        H917   1.083       .  S
C913        C914   1.406       .  A
C913        H918   1.083       .  S
C914        C915   1.403       .  A
C915        C916   1.394       .  A
C915        H919   1.083       .  S
C916        H920   1.083       .  S
C921        C922   1.409       .  A
C921        C926   1.405       .  A
C921        H931   1.083       .  S
C922        C927   1.490       .  S
C922        C923   1.405       .  A
C923        C924   1.395       .  A
C923        H928   1.083       .  S
C924        C925   1.405       .  A
C924        H929   1.083       .  S
C925        C926   1.403       .  A
C926        H930   1.082       .  S
C927        C932   1.407       .  A
C927        C936   1.405       .  A
C932        C933   1.403       .  A
C932        H937   1.083       .  S
C933        C934   1.407       .  A
C933        H938   1.083       .  S
C934        C935   1.406       .  A
C935        C936   1.397       .  A
C935        H939   1.083       .  S
C936        H940   1.083       .  S
C941        C942   1.407       .  A
C941        C946   1.397       .  A
C941        H951   1.082       .  S
C942        C947   1.497       .  S
C942        C943   1.410       .  A
C943        C944   1.403       .  A
C943        H948   1.082       .  S
C944        C945   1.405       .  A
C944        H949   1.083       .  S
C945        C946   1.405       .  A
C946        H950   1.083       .  S
C947        C952   1.410       .  A
C947        C956   1.408       .  A
C952        C953   1.400       .  A
C952        H957   1.082       .  S
C953        C954   1.404       .  A
C953        H958   1.083       .  S
C954        C955   1.406       .  A
C955        C956   1.401       .  A
C955        H959   1.083       .  S
C956        H960   1.082       .  S
C961        C962   1.406       .  A
C961        C966   1.394       .  A
C961        H971   1.082       .  S
C962        C967   1.485       .  S
C962        C963   1.407       .  A
C963        C964   1.396       .  A
C963        H968   1.082       .  S
C964        C965   1.404       .  A
C964        H969   1.083       .  S
C965        C966   1.404       .  A
C966        H970   1.083       .  S
C967        C972   1.407       .  A
C967        C976   1.406       .  A
C972        C973   1.396       .  A
C972        H977   1.082       .  S
C973        C974   1.404       .  A
C973        H978   1.083       .  S
C974        C975   1.403       .  A
C975        C976   1.395       .  A
C975        H979   1.083       .  S
C976        H980   1.082       .  S
C981        C982   1.402   1_554  A
C981        C986   1.395       .  A
C981        H991   1.083       .  S
C982        C987   1.485       .  S
C982       C2263   1.406       .  A
C983        C984   1.401       .  A
C983       C2262   1.406       .  A
C983        H988   1.083       .  S
C984       C2265   1.406       .  A
C984        H989   1.079       .  S
C985        C986   1.410   1_556  A
C985       C2264   1.406       .  A
C986        H990   1.081       .  S
C987        C992   1.403       .  A
C987        C996   1.408   1_556  A
C992        C993   1.397       .  A
C992        H997   1.083       .  S
C993        C994   1.407       .  A
C993        H998   1.083       .  S
C994        C995   1.404   1_556  A
C995        C996   1.399       .  A
C995        H999   1.083       .  S
C996       H1000   1.083       .  S
C1001      C1002   1.402       .  A
C1001      C1006   1.394       .  A
C1001      H1011   1.083       .  S
C1002      C1007   1.478       .  S
C1002      C1003   1.402       .  A
C1003      C1004   1.394       .  A
C1003      H1008   1.083       .  S
C1004      C1005   1.409       .  A
C1004      H1009   1.076       .  S
C1005      C1006   1.409       .  A
C1006      H1010   1.083       .  S
C1007      C1012   1.404       .  A
C1007      C1016   1.404       .  A
C1012      C1013   1.395       .  A
C1012      H1017   1.083       .  S
C1013      C1014   1.405       .  A
C1013      H1018   1.083       .  S
C1014      C1015   1.404       .  A
C1015      C1016   1.394       .  A
C1015      H1019   1.083       .  S
C1016      H1020   1.083       .  S
C1021      C1022   1.407       .  A
C1021      C1026   1.398       .  A
C1021      H1031   1.083       .  S
C1022      C1027   1.494       .  S
C1022      C1023   1.408       .  A
C1023      C1024   1.402       .  A
C1023      H1028   1.083       .  S
C1024      C1025   1.406       .  A
C1024      H1029   1.083       .  S
C1025      C1026   1.406       .  A
C1026      H1030   1.083       .  S
C1027      C1032   1.411       .  A
C1027      C1036   1.406       .  A
C1032      C1033   1.406       .  A
C1032      H1037   1.082       .  S
C1033      C1034   1.402       .  A
C1033      H1038   1.083       .  S
C1034      C1035   1.403       .  A
C1035      C1036   1.395       .  A
C1035      H1039   1.084       .  S
C1036      H1040   1.082       .  S
C1041      C1042   1.410       .  A
C1041      C1046   1.402       .  A
C1041      H1051   1.082       .  S
C1042      C1047   1.499       .  S
C1042      C1043   1.408       .  A
C1043      C1044   1.400       .  A
C1043      H1048   1.082       .  S
C1044      C1045   1.406       .  A
C1044      H1049   1.083       .  S
C1045      C1046   1.405       .  A
C1046      H1050   1.083       .  S
C1047      C1052   1.409       .  A
C1047      C1056   1.410       .  A
C1052      C1053   1.401       .  A
C1052      H1057   1.082       .  S
C1053      C1054   1.405       .  A
C1053      H1058   1.083       .  S
C1054      C1055   1.405       .  A
C1055      C1056   1.401       .  A
C1055      H1059   1.083       .  S
C1056      H1060   1.082       .  S
C1061      C1062   1.405       .  A
C1061      C1066   1.396       .  A
C1061      H1071   1.083       .  S
C1062      C1067   1.482       .  S
C1062      C1063   1.406       .  A
C1063      C1064   1.393       .  A
C1063      H1068   1.083       .  S
C1064      C1065   1.403       .  A
C1064      H1069   1.083       .  S
C1065      C1066   1.405       .  A
C1066      H1070   1.083       .  S
C1067      C1072   1.406       .  A
C1067      C1076   1.406       .  A
C1072      C1073   1.397       .  A
C1072      H1077   1.083       .  S
C1073      C1074   1.404       .  A
C1073      H1078   1.083       .  S
C1074      C1075   1.402       .  A
C1075      C1076   1.392       .  A
C1075      H1079   1.083       .  S
C1076      H1080   1.083       .  S
C1081      C1086   1.400       .  A
C1081      C2362   1.404       .  A
C1081      H1091   1.083       .  S
C1082      C1087   1.484       .  S
C1082      C1083   1.406   1_556  A
C1082      C2361   1.404       .  A
C1083      C1084   1.399       .  A
C1083      H1088   1.083       .  S
C1084      C1085   1.404       .  A
C1084      H1089   1.083       .  S
C1085      C2366   1.407   1_554  A
C1086      C2365   1.407       .  A
C1086      H1090   1.083       .  S
C1087      C1092   1.403   1_556  A
C1087      C1096   1.406       .  A
C1092      C1093   1.396       .  A
C1092      H2377   1.083       .  S
C1093      C1094   1.407       .  A
C1093      H2378   1.083       .  S
C1094      C1095   1.405   1_554  A
C1095      C1096   1.401       .  A
C1095      H1099   1.082       .  S
C1096      H1100   1.083       .  S
H1097      C2372   1.083       .  S
H1098      C2373   1.083       .  S
C1101      C1102   1.401       .  A
C1101      C1106   1.394       .  A
C1101      H1111   1.083   1_554  S
C1102      C1107   1.487       .  S
C1102      C2383   1.407       .  A
C1103      C1104   1.405       .  A
C1103      C2382   1.407       .  A
C1103      H1108   1.083       .  S
C1104      C2385   1.405       .  A
C1104      H1109   1.076       .  S
C1105      C1106   1.409       .  A
C1105      C2384   1.405       .  A
C1106      H1110   1.082   1_554  S
C1107      C1116   1.402       .  A
C1107      C2392   1.410   1_554  A
C1112      C1113   1.402       .  A
C1112      C2387   1.410       .  A
C1112      H1117   1.083       .  S
C1113      C2394   1.401       .  A
C1113      H1118   1.083       .  S
C1114      C1115   1.407       .  A
C1114      C2393   1.401   1_554  A
C1115      C1116   1.397       .  A
C1115      H1119   1.083       .  S
C1116      H1120   1.083       .  S
C1121      C1122   1.401       .  A
C1121      C1126   1.393       .  A
C1121      H1131   1.083       .  S
C1122      C1127   1.474       .  S
C1122      C1123   1.401       .  A
C1123      C1124   1.395       .  A
C1123      H1128   1.083       .  S
C1124      C1125   1.410       .  A
C1124      H1129   1.077       .  S
C1125      C1126   1.409       .  A
C1126      H1130   1.083       .  S
C1127      C1132   1.403       .  A
C1127      C1136   1.403       .  A
C1132      C1133   1.394       .  A
C1132      H1137   1.083       .  S
C1133      C1134   1.405       .  A
C1133      H1138   1.083       .  S
C1134      C1135   1.405       .  A
C1135      C1136   1.395       .  A
C1135      H1139   1.083       .  S
C1136      H1140   1.083       .  S
C1141      C1142   1.408       .  A
C1141      C1146   1.403       .  A
C1141      H1151   1.083       .  S
C1142      C1147   1.492       .  S
C1142      C1143   1.406       .  A
C1143      C1144   1.397       .  A
C1143      H1148   1.083       .  S
C1144      C1145   1.406       .  A
C1144      H1149   1.083       .  S
C1145      C1146   1.407       .  A
C1146      H1150   1.083       .  S
C1147      C1152   1.409       .  A
C1147      C1156   1.405       .  A
C1152      C1153   1.405       .  A
C1152      H1157   1.083       .  S
C1153      C1154   1.404       .  A
C1153      H1158   1.083       .  S
C1154      C1155   1.405       .  A
C1155      C1156   1.395       .  A
C1155      H1159   1.083       .  S
C1156      H1160   1.083       .  S
C1161      C1162   1.409       .  A
C1161      C1166   1.401       .  A
C1161      H1171   1.082       .  S
C1162      C1167   1.500       .  S
C1162      C1163   1.409       .  A
C1163      C1164   1.402       .  A
C1163      H1168   1.082       .  S
C1164      C1165   1.406       .  A
C1164      H1169   1.083       .  S
C1165      C1166   1.406       .  A
C1166      H1170   1.083       .  S
C1167      C1172   1.409       .  A
C1167      C1176   1.410       .  A
C1172      C1173   1.400       .  A
C1172      H1177   1.082       .  S
C1173      C1174   1.405       .  A
C1173      H1178   1.083       .  S
C1174      C1175   1.405       .  A
C1175      C1176   1.403       .  A
C1175      H1179   1.083       .  S
C1176      H1180   1.082       .  S
C1181      C1182   1.406       .  A
C1181      C1186   1.395       .  A
C1181      H1191   1.082       .  S
C1182      C1187   1.486       .  S
C1182      C1183   1.407       .  A
C1183      C1184   1.397       .  A
C1183      H1188   1.083       .  S
C1184      C1185   1.403       .  A
C1184      H1189   1.083       .  S
C1185      C1186   1.403       .  A
C1186      H1190   1.083       .  S
C1187      C1192   1.406       .  A
C1187      C1196   1.407       .  A
C1192      C1193   1.396       .  A
C1192      H1197   1.082       .  S
C1193      C1194   1.404       .  A
C1193      H1198   1.083       .  S
C1194      C1195   1.404       .  A
C1195      C1196   1.396       .  A
C1195      H1199   1.083       .  S
C1196      H1200   1.083       .  S
C1201      C1202   1.407       .  A
C1201      C1206   1.401       .  A
C1201      H1211   1.083       .  S
C1202      C1207   1.490   1_556  S
C1202      C2483   1.406       .  A
C1203      C1204   1.397       .  A
C1203      C2482   1.406       .  A
C1203      H1208   1.083       .  S
C1204      C2485   1.404       .  A
C1204      H1209   1.084       .  S
C1205      C1206   1.402       .  A
C1205      C2484   1.404       .  A
C1206      H1210   1.080       .  S
C1207      C1212   1.406   1_554  A
C1207      C2496   1.410       .  A
C1212      C1213   1.399       .  A
C1212      H1217   1.082       .  S
C1213      C1214   1.403   1_556  A
C1213      H1218   1.084       .  S
C1214      C2495   1.400       .  A
C1215      C1216   1.401       .  A
C1215      C2494   1.400       .  A
C1215      H1219   1.083       .  S
C1216      C2487   1.410       .  A
C1216      H1220   1.083       .  S
C1221      C1226   1.396       .  A
C1221      C2502   1.401       .  A
C1221      H1231   1.083       .  S
C1222      C1227   1.482       .  S
C1222      C1223   1.406       .  A
C1222      C2501   1.401       .  A
C1223      C1224   1.402       .  A
C1223      H1228   1.083       .  S
C1224      C1225   1.406       .  A
C1224      H1229   1.082       .  S
C1225      C2506   1.409       .  A
C1226      C2505   1.409       .  A
C1226      H1230   1.082       .  S
C1227      C1232   1.403       .  A
C1227      C1236   1.405   1_554  A
C1232      C1233   1.399       .  A
C1232      H2517   1.083       .  S
C1233      C1234   1.408       .  A
C1233      H1238   1.083       .  S
C1234      C1235   1.405   1_554  A
C1235      C1236   1.399       .  A
C1235      H1239   1.083       .  S
C1236      H1240   1.083       .  S
H1237      C2512   1.083       .  S
C1241      C1242   1.402       .  A
C1241      C1246   1.395       .  A
C1241      H1251   1.083       .  S
C1242      C1247   1.478       .  S
C1242      C1243   1.402       .  A
C1243      C1244   1.394       .  A
C1243      H1248   1.083       .  S
C1244      C1245   1.409       .  A
C1244      H1249   1.077       .  S
C1245      C1246   1.409       .  A
C1246      H1250   1.083       .  S
C1247      C1252   1.404       .  A
C1247      C1256   1.404       .  A
C1252      C1253   1.396       .  A
C1252      H1257   1.083       .  S
C1253      C1254   1.406       .  A
C1253      H1258   1.083       .  S
C1254      C1255   1.404       .  A
C1255      C1256   1.394       .  A
C1255      H1259   1.083       .  S
C1256      H1260   1.083       .  S
C1261      C1262   1.406       .  A
C1261      C1266   1.397       .  A
C1261      H1271   1.083       .  S
C1262      C1267   1.493       .  S
C1262      C1263   1.409       .  A
C1263      C1264   1.405       .  A
C1263      H1268   1.083       .  S
C1264      C1265   1.403       .  A
C1264      H1269   1.083       .  S
C1265      C1266   1.404       .  A
C1266      H1270   1.083       .  S
C1267      C1272   1.406       .  A
C1267      C1276   1.408       .  A
C1272      C1273   1.399       .  A
C1272      H1277   1.083       .  S
C1273      C1274   1.407       .  A
C1273      H1278   1.083       .  S
C1274      C1275   1.407       .  A
C1275      C1276   1.403       .  A
C1275      H1279   1.083       .  S
C1276      H1280   1.083       .  S
C1281      C1282   1.536       .  S
C1281      C1287   1.531   1_556  S
C1281      C1285   1.530       .  S
C1281      C2525   1.522       .  S
C1282      H1289   1.082       .  S
C1283      C1284   1.544       .  S
C1283      C2494   1.475       .  S
C1284      C1288   1.547       .  S
C1284      C1286   1.548       .  S
C1284      H1290   1.110       .  S
C1285      H1291   1.086       .  S
C1286      C2505   1.491       .  S
C1288      C2545   1.485       .  S
O1293     Ni1301   1.930       .  S
O1293      C1303   1.284       .  A
O1294     Ni1301   1.927       .  S
O1294      C1304   1.284       .  A
O1295     Ni1301   1.912       .  S
O1295      C1305   1.280       .  A
O1296     Ni1301   1.911       .  S
O1296      C1306   1.280       .  A
O1297     Ni1302   1.913       .  S
O1297      C1306   1.281       .  A
O1298     Ni1302   1.915       .  S
O1298      C1305   1.281       .  A
O1299     Ni1302   1.922       .  S
O1299      C1304   1.282       .  A
O1300     Ni1302   1.918       .  S
O1300      C1303   1.282       .  A
Ni1301    Ni1302   2.386       .  S
C1303      C2554   1.489       .  S
C1304      C2445   1.489       .  S
C1305      C2465   1.474       .  S
C1306      C2534   1.475       .  S
C1307      C1308   1.537       .  S
C1307      C1313   1.526       .  S
C1307      C1311   1.534       .  S
C1307      C2405   1.521       .  S
C1308      H1315   1.082       .  S
C1308      C1309   1.366       .  D
C1309      C2394   1.483       .  S
C1310      C1314   1.548       .  S
C1310      H1316   1.110       .  S
C1311      H1317   1.086       .  S
C1311      C1312   1.368       .  D
C1312      C2374   1.487       .  S
C1313      H1318   1.087       .  S
C1314      C2434   1.487       .  S
O1319     Ni1327   1.928       .  S
O1319      C1329   1.284       .  A
O1320     Ni1327   1.929       .  S
O1320      C1330   1.284       .  A
O1321     Ni1327   1.909       .  S
O1321      C1331   1.280       .  A
O1322     Ni1327   1.907       .  S
O1322      C1332   1.280       .  A
O1323     Ni1328   1.912       .  S
O1323      C1332   1.281       .  A
O1324     Ni1328   1.912       .  S
O1324      C1331   1.281       .  A
O1325     Ni1328   1.917       .  S
O1325      C1330   1.281       .  A
O1326     Ni1328   1.915       .  S
O1326      C1329   1.281       .  A
Ni1327    Ni1328   2.387       .  S
C1329      C2425   1.487       .  S
C1330      C2325   1.488       .  S
C1331      C2345   1.473       .  S
C1332      C2414   1.473       .  S
O1333      C1343   1.282       .  A
O1334     Ni1341   1.922       .  S
O1334      C1344   1.283       .  A
O1335     Ni1341   1.912       .  S
O1335      C1345   1.281       .  A
O1336      C1346   1.280       .  A
O1337      C1346   1.280       .  A
O1338     Ni1342   1.914       .  S
O1338      C1345   1.281       .  A
O1339     Ni1342   1.924       .  S
O1339      C1344   1.283       .  A
O1340      C1343   1.283       .  A
Ni1341    Ni1342   2.387       .  S
C1343      C2454   1.487       .  S
C1344      C2334   1.486       .  S
C1345      C2474   1.476       .  S
C1346      C2354   1.470       .  S
C1347      C1348   1.536       .  S
C1347      C1353   1.527       .  S
C1347      C1351   1.531       .  S
C1347      C2285   1.523       .  S
C1348      H1355   1.081       .  S
C1348      C1349   1.364       .  D
C1349      C2485   1.483       .  S
C1350      C1354   1.548       .  S
C1350      H1356   1.109       .  S
C1351      H1357   1.085       .  S
C1351      C1352   1.370       .  D
C1352      C2265   1.495       .  S
C1353      H1358   1.087       .  S
C1354      C2314   1.482       .  S
O1359     Ni1367   1.914       .  S
O1359      C1369   1.281       .  A
O1360     Ni1367   1.916       .  S
O1360      C1370   1.282       .  A
O1361     Ni1367   1.910       .  S
O1361      C1371   1.280       .  A
O1362     Ni1367   1.911       .  S
O1362      C1372   1.281       .  A
O1363     Ni1368   1.913       .  S
O1363      C1372   1.281       .  A
O1364     Ni1368   1.912       .  S
O1364      C1371   1.281       .  A
O1365     Ni1368   1.928       .  S
O1365      C1370   1.284       .  A
O1366     Ni1368   1.928       .  S
O1366      C1369   1.284       .  A
Ni1367    Ni1368   2.387       .  S
C1369      C2225   1.485       .  S
C1370      C2305   1.487       .  S
C1371      C2294   1.474       .  S
C1372      C2245   1.474       .  S
C1373      C1374   1.538       .  S
C1373      C1379   1.531       .  S
C1373      C1377   1.529       .  S
C1373      C2185   1.522       .  S
C1374      H1381   1.081       .  S
C1375      C1376   1.544       .  S
C1375      C2165   1.481       .  S
C1376      C1380   1.547       .  S
C1376      C1378   1.542       .  S
C1376      H1382   1.111       .  S
C1377      H1383   1.087       .  S
C1378      C2154   1.479       .  S
C1380      C2205   1.485       .  S
O1385     Ni1393   1.927       .  S
O1385      C1395   1.284       .  A
O1386     Ni1393   1.926       .  S
O1386      C1396   1.284       .  A
O1387     Ni1393   1.909       .  S
O1387      C1397   1.280       .  A
O1388     Ni1393   1.905       .  S
O1388      C1398   1.279       .  A
O1389     Ni1394   1.913       .  S
O1389      C1398   1.282       .  A
O1390     Ni1394   1.914       .  S
O1390      C1397   1.281       .  A
O1391     Ni1394   1.920       .  S
O1391      C1396   1.282       .  A
O1392     Ni1394   1.916       .  S
O1392      C1395   1.282       .  A
Ni1393    Ni1394   2.387       .  S
C1395      C2214   1.487       .  S
C1396      C2105   1.486       .  S
C1397      C2125   1.473       .  S
C1398      C2194   1.473       .  S
O1399      C1409   1.282       .  A
O1400     Ni1407   1.920       .  S
O1400      C1410   1.282       .  A
O1401     Ni1407   1.912       .  S
O1401      C1411   1.281       .  A
O1402      C1412   1.281       .  A
O1403      C1412   1.281       .  A
O1404     Ni1408   1.911       .  S
O1404      C1411   1.280       .  A
O1405     Ni1408   1.924       .  S
O1405      C1410   1.283       .  A
O1406      C1409   1.283       .  A
Ni1407    Ni1408   2.387       .  S
C1409      C2114   1.485       .  S
C1410      C2234   1.485       .  S
C1411      C2134   1.474       .  S
C1412      C2254   1.474       .  S
C1413      C1414   1.534       .  S
C1413      C1419   1.528   1_556  S
C1413      C1417   1.528       .  S
C1413      C2065   1.526       .  S
C1414      H1421   1.079       .  S
C1415      C1416   1.552       .  S
C1415      C2385   1.496       .  S
C1416      C1420   1.548       .  S
C1416      C1418   1.553       .  S
C1416      H1422   1.109       .  S
C1417      H1423   1.085       .  S
C1418      C2045   1.494       .  S
C1420      C2085   1.483       .  S
O1425     Ni1433   1.924       .  S
O1425      C1435   1.283       .  A
O1426     Ni1433   1.924       .  S
O1426      C1436   1.283       .  A
O1427     Ni1433   1.922       .  S
O1427      C1437   1.283       .  A
O1428     Ni1433   1.915       .  S
O1428      C1438   1.281       .  A
O1429     Ni1434   1.912       .  S
O1429      C1438   1.281       .  A
O1430     Ni1434   1.911       .  S
O1430      C1437   1.280       .  A
O1431     Ni1434   1.925       .  S
O1431      C1436   1.283       .  A
O1432     Ni1434   1.926       .  S
O1432      C1435   1.283       .  A
Ni1433    Ni1434   2.386       .  S
C1435      C2094   1.490       .  S
C1436      C2014   1.486       .  S
C1437      C2025   1.479       .  S
C1438      C2074   1.476       .  S
C1439      C1440   1.537       .  S
C1439      C1445   1.524       .  S
C1439      C1443   1.533       .  S
C1439      C1974   1.520       .  S
C1440      H1447   1.080       .  S
C1440      C1441   1.367       .  D
C1441      C1954   1.486       .  S
C1442      C1446   1.547       .  S
C1442      H1448   1.110       .  S
C1443      H1449   1.087       .  S
C1443      C1444   1.365       .  D
C1444      C1934   1.482       .  S
C1445      H1450   1.087       .  S
C1446      C1985   1.481       .  S
O1451     Ni1459   1.923       .  S
O1451      C1461   1.283       .  A
O1452     Ni1459   1.925       .  S
O1452      C1462   1.283       .  A
O1453     Ni1459   1.911       .  S
O1453      C1463   1.280       .  A
O1454     Ni1459   1.914       .  S
O1454      C1464   1.281       .  A
O1455     Ni1460   1.913       .  S
O1455      C1464   1.281       .  A
O1456     Ni1460   1.909       .  S
O1456      C1463   1.280       .  A
O1457     Ni1460   1.917       .  S
O1457      C1462   1.282       .  A
O1458     Ni1460   1.920       .  S
O1458      C1461   1.282       .  A
Ni1459    Ni1460   2.387       .  S
C1461      C1885   1.484       .  S
C1462      C1994   1.485       .  S
C1463      C1965   1.473       .  S
C1464      C1914   1.473       .  S
O1465     Ni1473   1.923       .  S
O1465      C1475   1.283       .  A
O1466      C1476   1.283       .  A
O1467      C1477   1.282       .  A
O1468     Ni1473   1.918       .  S
O1468      C1478   1.282       .  A
O1469     Ni1474   1.915       .  S
O1469      C1478   1.281       .  A
O1470      C1477   1.281       .  A
O1471      C1476   1.283       .  A
O1472     Ni1474   1.922       .  S
O1472      C1475   1.282       .  A
Ni1473    Ni1474   2.386       .  S
C1475      C1894   1.486       .  S
C1476      C2005   1.489       .  S
C1477      C1905   1.480       .  S
C1478      C2034   1.479       .  S
C1479      C1480   1.541       .  S
C1479      C1485   1.528       .  S
C1479      C1483   1.532       .  S
C1479      C1845   1.522       .  S
C1480      H1487   1.080       .  S
C1480      C1481   1.371       .  D
C1481      C2174   1.487       .  S
C1482      C1486   1.542       .  S
C1482      H1488   1.110       .  S
C1483      H1489   1.087       .  S
C1483      C1484   1.363       .  D
C1484      C1834   1.478       .  S
C1485      H1490   1.087       .  S
C1486      C1865   1.481       .  S
O1491     Ni1499   1.921       .  S
O1491      C1501   1.283       .  A
O1492     Ni1499   1.923       .  S
O1492      C1502   1.282       .  A
O1493     Ni1499   1.914       .  S
O1493      C1503   1.281       .  A
O1494     Ni1499   1.917       .  S
O1494      C1504   1.281       .  A
O1495     Ni1500   1.913       .  S
O1495      C1504   1.281       .  A
O1496     Ni1500   1.911       .  S
O1496      C1503   1.281       .  A
O1497     Ni1500   1.917       .  S
O1497      C1502   1.282       .  A
O1498     Ni1500   1.921       .  S
O1498      C1501   1.282       .  A
Ni1499    Ni1500   2.387       .  S
C1501      C1785   1.483       .  S
C1502      C1874   1.483       .  S
C1503      C1854   1.476       .  S
C1504      C1805   1.475       .  S
C1505      C1506   1.537       .  S
C1505      C1511   1.525   1_556  S
C1505      C1509   1.534       .  S
C1505      C1745   1.521       .  S
C1506      H1513   1.082       .  S
C1507      C1508   1.542       .  S
C1507      C1945   1.478       .  S
C1508      C1512   1.547       .  S
C1508      C1510   1.546       .  S
C1508      H1514   1.110       .  S
C1509      H1515   1.086       .  S
C1510      C1734   1.486       .  S
C1512      C1765   1.485       .  S
O1517     Ni1525   1.922       .  S
O1517      C1527   1.283       .  A
O1518     Ni1525   1.924       .  S
O1518      C1528   1.283       .  A
O1519     Ni1525   1.906       .  S
O1519      C1529   1.280       .  A
O1520     Ni1525   1.910       .  S
O1520      C1530   1.280       .  A
O1521     Ni1526   1.914       .  S
O1521      C1530   1.281       .  A
O1522     Ni1526   1.914       .  S
O1522      C1529   1.281       .  A
O1523     Ni1526   1.920       .  S
O1523      C1528   1.282       .  A
O1524     Ni1526   1.920       .  S
O1524      C1527   1.282       .  A
Ni1525    Ni1526   2.387       .  S
C1527      C1694   1.484       .  S
C1528      C1774   1.487       .  S
C1529      C1754   1.473       .  S
C1530      C1714   1.474       .  S
O1531      C1541   1.281       .  A
O1532     Ni1539   1.917       .  S
O1532      C1542   1.282       .  A
O1533     Ni1539   1.910       .  S
O1533      C1543   1.280       .  A
O1534      C1544   1.281       .  A
O1535      C1544   1.281       .  A
O1536     Ni1540   1.914       .  S
O1536      C1543   1.281       .  A
O1537     Ni1540   1.927       .  S
O1537      C1542   1.284       .  A
O1538      C1541   1.283       .  A
Ni1539    Ni1540   2.387       .  S
C1541      C1685   1.484       .  S
C1542      C1794   1.486       .  S
C1543      C1705   1.472       .  S
C1544      C1814   1.477       .  S
O1545     Ni1553   1.918       .  S
O1546     Ni1553   1.917   1_565  S
O1547     Ni1553   1.924       .  S
O1548     Ni1553   1.924   1_565  S
O1549     Ni1554   1.915   1_565  S
O1549      C1558   1.281       .  A
O1550     Ni1554   1.917       .  S
O1550      C1557   1.281       .  A
O1551     Ni1554   1.918   1_565  S
O1551      C1556   1.282       .  A
O1552     Ni1554   1.920       .  S
O1552      C1555   1.282       .  A
C1555      C1925   1.481       .  S
C1556      C1674   1.482       .  S
C1557      C1654   1.483       .  S
C1558      C2145   1.483       .  S
O1559     Ni1567   1.913       .  S
O1560     Ni1567   1.914   1_655  S
O1561     Ni1567   1.926       .  S
O1562     Ni1567   1.925   1_655  S
O1563     Ni1568   1.906   1_655  S
O1563      C1572   1.279       .  A
O1564     Ni1568   1.906       .  S
O1564      C1571   1.279       .  A
O1565     Ni1568   1.926   1_655  S
O1565      C1570   1.284       .  A
O1566     Ni1568   1.926       .  S
O1566      C1569   1.284       .  A
C1569      C1645   1.484       .  S
C1570      C2365   1.481       .  S
C1571      C1725   1.479       .  S
C1572      C1634   1.479       .  S
O1573     Ni1581   1.907   1_655  S
O1574     Ni1581   1.909       .  S
O1575     Ni1581   1.924   1_655  S
O1576     Ni1581   1.921       .  S
O1577     Ni1582   1.913       .  S
O1577      C1586   1.280       .  A
O1578     Ni1582   1.915   1_655  S
O1578      C1585   1.281       .  A
O1579     Ni1582   1.921       .  S
O1579      C1584   1.283       .  A
O1580     Ni1582   1.923   1_655  S
O1580      C1583   1.283       .  A
C1583      C1605   1.478       .  S
C1584      C1825   1.476       .  S
C1585      C2514   1.483       .  S
C1586      C1665   1.475       .  S
O1587     Ni1595   1.908       .  S
O1588     Ni1595   1.905   1_545  S
O1589     Ni1595   1.929       .  S
O1590     Ni1595   1.928   1_545  S
O1591     Ni1596   1.905   1_545  S
O1591      C1600   1.279       .  A
O1592     Ni1596   1.903       .  S
O1592      C1599   1.279       .  A
O1593     Ni1596   1.925   1_545  S
O1593      C1598   1.284       .  A
O1594     Ni1596   1.927       .  S
O1594      C1597   1.284       .  A
C1597      C2274   1.481       .  S
C1598      C1625   1.477       .  S
C1599      C1614   1.479       .  S
C1600      C2054   1.481       .  S
C1601      C1602   1.408       .  A
C1601      C1606   1.398       .  A
C1601      H1611   1.083       .  S
C1602      C1607   1.487       .  S
C1603      C1604   1.397       .  A
C1603      H1608   1.083       .  S
C1604      H1609   1.083       .  S
C1605      C1606   1.403       .  A
C1606      H1610   1.083       .  S
C1607      C1612   1.404       .  A
C1612      C1613   1.393       .  A
C1612      H1617   1.083       .  S
C1613      C1614   1.405       .  A
C1613      H1618   1.083       .  S
C1615      C1616   1.401       .  A
C1615      H1619   1.083       .  S
C1616      H1620   1.083       .  S
C1621      C1622   1.408       .  A
C1621      C1626   1.397       .  A
C1621      H1631   1.082       .  S
C1622      C1627   1.486       .  S
C1623      C1624   1.396       .  A
C1623      H1628   1.083       .  S
C1624      H1629   1.083       .  S
C1625      C1626   1.402       .  A
C1626      H1630   1.083       .  S
C1627      C1632   1.404       .  A
C1627      C1636   1.408       .  A
C1632      C1633   1.394       .  A
C1632      H1637   1.083       .  S
C1633      C1634   1.405       .  A
C1633      H1638   1.083       .  S
C1634      C1635   1.404       .  A
C1635      C1636   1.400       .  A
C1641      C1646   1.398       .  A
C1641      H1651   1.082       .  S
C1642      C1647   1.495       .  S
C1642      C1643   1.409       .  A
C1643      C1644   1.401       .  A
C1643      H1648   1.082       .  S
C1644      C1645   1.405       .  A
C1644      H1649   1.083       .  S
C1646      H1650   1.083       .  S
C1647      C1652   1.409       .  A
C1647      C1656   1.407       .  A
C1652      C1653   1.400       .  A
C1652      H1657   1.082       .  S
C1653      C1654   1.404       .  A
C1653      H1658   1.083       .  S
C1654      C1655   1.405       .  A
C1655      C1656   1.399       .  A
C1655      H1659   1.083       .  S
C1656      H1660   1.082       .  S
C1661      C1666   1.399       .  A
C1661      H1671   1.082       .  S
C1662      C1667   1.493       .  S
C1662      C1663   1.408       .  A
C1663      C1664   1.396       .  A
C1663      H1668   1.082       .  S
C1664      C1665   1.403       .  A
C1664      H1669   1.083       .  S
C1666      H1670   1.083       .  S
C1667      C1676   1.408       .  A
C1672      C1673   1.399       .  A
C1672      H1677   1.082       .  S
C1673      H1678   1.083       .  S
C1674      C1675   1.404       .  A
C1675      C1676   1.396       .  A
C1675      H1679   1.083       .  S
C1676      H1680   1.082       .  S
C1681      C1682   1.408       .  A
C1681      C1686   1.399       .  A
C1681      H1691   1.082       .  S
C1682      C1687   1.495       .  S
C1682      C1683   1.409       .  A
C1683      C1684   1.401       .  A
C1683      H1688   1.082       .  S
C1684      C1685   1.405       .  A
C1684      H1689   1.083       .  S
C1685      C1686   1.406       .  A
C1686      H1690   1.083       .  S
C1687      C1692   1.408       .  A
C1687      C1696   1.408       .  A
C1692      C1693   1.399       .  A
C1692      H1697   1.082       .  S
C1693      C1694   1.405       .  A
C1693      H1698   1.083       .  S
C1694      C1695   1.405       .  A
C1695      C1696   1.400       .  A
C1695      H1699   1.083       .  S
C1696      H1700   1.082       .  S
C1701      C1702   1.405       .  A
C1701      C1706   1.394       .  A
C1701      H1711   1.083       .  S
C1702      C1707   1.481       .  S
C1702      C1703   1.406       .  A
C1703      C1704   1.397       .  A
C1703      H1708   1.083       .  S
C1704      C1705   1.404       .  A
C1704      H1709   1.083       .  S
C1705      C1706   1.403       .  A
C1706      H1710   1.083       .  S
C1707      C1712   1.406       .  A
C1707      C1716   1.405       .  A
C1712      C1713   1.395       .  A
C1712      H1717   1.083       .  S
C1713      C1714   1.403       .  A
C1713      H1718   1.083       .  S
C1714      C1715   1.404       .  A
C1715      C1716   1.395       .  A
C1715      H1719   1.083       .  S
C1716      H1720   1.083       .  S
C1721      C1722   1.402       .  A
C1721      C1726   1.397       .  A
C1721      H1731   1.083       .  S
C1722      C1727   1.479       .  S
C1722      C1723   1.406       .  A
C1723      C1724   1.399       .  A
C1724      C1725   1.404       .  A
C1724      H1729   1.083       .  S
C1725      C1726   1.407       .  A
C1726      H1730   1.083       .  S
C1727      C1736   1.405       .  A
C1732      C1733   1.396       .  A
C1732      H1737   1.083       .  S
C1733      H1738   1.083       .  S
C1734      C1735   1.405       .  A
C1735      C1736   1.400       .  A
C1735      H1739   1.082       .  S
C1736      H1740   1.083       .  S
C1741      C1742   1.402       .  A
C1741      C1746   1.394       .  A
C1741      H1751   1.083       .  S
C1742      C1747   1.476       .  S
C1742      C1743   1.401       .  A
C1743      C1744   1.394       .  A
C1743      H1748   1.083       .  S
C1744      C1745   1.410       .  A
C1744      H1749   1.077       .  S
C1745      C1746   1.408       .  A
C1746      H1750   1.083       .  S
C1747      C1752   1.403       .  A
C1747      C1756   1.404       .  A
C1752      C1753   1.393       .  A
C1752      H1757   1.083       .  S
C1753      C1754   1.405       .  A
C1753      H1758   1.083       .  S
C1754      C1755   1.404       .  A
C1755      C1756   1.395       .  A
C1755      H1759   1.083       .  S
C1756      H1760   1.083       .  S
C1761      C1762   1.406       .  A
C1761      C1766   1.395       .  A
C1761      H1771   1.082       .  S
C1762      C1767   1.494       .  S
C1762      C1763   1.411       .  A
C1763      C1764   1.405       .  A
C1763      H1768   1.083       .  S
C1764      C1765   1.403       .  A
C1764      H1769   1.083       .  S
C1765      C1766   1.405       .  A
C1766      H1770   1.083       .  S
C1767      C1772   1.408       .  A
C1767      C1776   1.407       .  A
C1772      C1773   1.399       .  A
C1772      H1777   1.083       .  S
C1773      C1774   1.406       .  A
C1773      H1778   1.083       .  S
C1774      C1775   1.407       .  A
C1775      C1776   1.401       .  A
C1775      H1779   1.083       .  S
C1776      H1780   1.083       .  S
C1781      C1782   1.408       .  A
C1781      C1786   1.399       .  A
C1781      H1791   1.082       .  S
C1782      C1787   1.496       .  S
C1782      C1783   1.409       .  A
C1783      C1784   1.401       .  A
C1783      H1788   1.082       .  S
C1784      C1785   1.405       .  A
C1784      H1789   1.083       .  S
C1785      C1786   1.405       .  A
C1786      H1790   1.083       .  S
C1787      C1792   1.409       .  A
C1787      C1796   1.407       .  A
C1792      C1793   1.401       .  A
C1792      H1797   1.082       .  S
C1793      C1794   1.405       .  A
C1793      H1798   1.083       .  S
C1794      C1795   1.406       .  A
C1795      C1796   1.399       .  A
C1795      H1799   1.083       .  S
C1796      H1800   1.082       .  S
C1801      C1802   1.406       .  A
C1801      C1806   1.398       .  A
C1801      H1811   1.083       .  S
C1802      C1807   1.483       .  S
C1802      C1803   1.405       .  A
C1803      C1804   1.395       .  A
C1803      H1808   1.083       .  S
C1804      C1805   1.404       .  A
C1804      H1809   1.083       .  S
C1805      C1806   1.404       .  A
C1806      H1810   1.083       .  S
C1807      C1812   1.405       .  A
C1807      C1816   1.405       .  A
C1812      C1813   1.398       .  A
C1812      H1817   1.083       .  S
C1813      C1814   1.405       .  A
C1813      H1818   1.083       .  S
C1814      C1815   1.404       .  A
C1815      C1816   1.395       .  A
C1815      H1819   1.083       .  S
C1816      H1820   1.083       .  S
C1821      C1822   1.409       .  A
C1821      C1826   1.397       .  A
C1821      H1831   1.082       .  S
C1822      C1827   1.487       .  S
C1823      C1824   1.397       .  A
C1823      H1828   1.083       .  S
C1824      H1829   1.083       .  S
C1825      C1826   1.402       .  A
C1826      H1830   1.083       .  S
C1827      C1832   1.404       .  A
C1827      C1836   1.410       .  A
C1832      C1833   1.393       .  A
C1832      H1837   1.083       .  S
C1833      C1834   1.403       .  A
C1833      H1838   1.083       .  S
C1834      C1835   1.401       .  A
C1835      C1836   1.401       .  A
C1841      C1842   1.402       .  A
C1841      C1846   1.393       .  A
C1841      H1851   1.083       .  S
C1842      C1847   1.480       .  S
C1842      C1843   1.404       .  A
C1843      C1844   1.397       .  A
C1843      H1848   1.083       .  S
C1844      C1845   1.409       .  A
C1844      H1849   1.077       .  S
C1845      C1846   1.409       .  A
C1846      H1850   1.083       .  S
C1847      C1852   1.405       .  A
C1847      C1856   1.404       .  A
C1852      C1853   1.395       .  A
C1852      H1857   1.083       .  S
C1853      C1854   1.405       .  A
C1853      H1858   1.083       .  S
C1854      C1855   1.405       .  A
C1855      C1856   1.395       .  A
C1855      H1859   1.083       .  S
C1856      H1860   1.083       .  S
C1861      C1862   1.408       .  A
C1861      C1866   1.404       .  A
C1861      H1871   1.083       .  S
C1862      C1867   1.485       .  S
C1862      C1863   1.404       .  A
C1863      C1864   1.394       .  A
C1863      H1868   1.083       .  S
C1864      C1865   1.403       .  A
C1864      H1869   1.083       .  S
C1865      C1866   1.403       .  A
C1866      H1870   1.082       .  S
C1867      C1872   1.406       .  A
C1867      C1876   1.405       .  A
C1872      C1873   1.401       .  A
C1872      H1877   1.083       .  S
C1873      C1874   1.407       .  A
C1873      H1878   1.083       .  S
C1874      C1875   1.406       .  A
C1875      C1876   1.397       .  A
C1875      H1879   1.083       .  S
C1876      H1880   1.083       .  S
C1881      C1882   1.408       .  A
C1881      C1886   1.400       .  A
C1881      H1891   1.082       .  S
C1882      C1887   1.495       .  S
C1882      C1883   1.408       .  A
C1883      C1884   1.400       .  A
C1883      H1888   1.082       .  S
C1884      C1885   1.405       .  A
C1884      H1889   1.083       .  S
C1885      C1886   1.405       .  A
C1886      H1890   1.083       .  S
C1887      C1892   1.408       .  A
C1887      C1896   1.408       .  A
C1892      C1893   1.401       .  A
C1892      H1897   1.082       .  S
C1893      C1894   1.406       .  A
C1893      H1898   1.083       .  S
C1894      C1895   1.406       .  A
C1895      C1896   1.400       .  A
C1895      H1899   1.083       .  S
C1896      H1900   1.082       .  S
C1901      C1902   1.407       .  A
C1901      C1906   1.397       .  A
C1901      H1911   1.082       .  S
C1902      C1907   1.488       .  S
C1902      C1903   1.407       .  A
C1903      C1904   1.397       .  A
C1903      H1908   1.083       .  S
C1904      C1905   1.405       .  A
C1904      H1909   1.083       .  S
C1905      C1906   1.405       .  A
C1906      H1910   1.083       .  S
C1907      C1912   1.407       .  A
C1907      C1916   1.407       .  A
C1912      C1913   1.397       .  A
C1912      H1917   1.083       .  S
C1913      C1914   1.403       .  A
C1913      H1918   1.083       .  S
C1914      C1915   1.403       .  A
C1915      C1916   1.396       .  A
C1915      H1919   1.083       .  S
C1916      H1920   1.082       .  S
C1921      C1926   1.400       .  A
C1921      H1931   1.082       .  S
C1922      C1927   1.496       .  S
C1922      C1923   1.410       .  A
C1923      C1924   1.398       .  A
C1923      H1928   1.082       .  S
C1924      C1925   1.403       .  A
C1924      H1929   1.083       .  S
C1926      H1930   1.083       .  S
C1927      C1932   1.412       .  A
C1927      C1936   1.407       .  A
C1932      C1933   1.403       .  A
C1932      H1937   1.082       .  S
C1933      C1934   1.401       .  A
C1933      H1938   1.082       .  S
C1934      C1935   1.404       .  A
C1935      C1936   1.394       .  A
C1935      H1939   1.083       .  S
C1936      H1940   1.082       .  S
C1941      C1942   1.409       .  A
C1941      C1946   1.400       .  A
C1941      H1951   1.083       .  S
C1942      C1947   1.482       .  S
C1943      C1944   1.396       .  A
C1943      H1948   1.083       .  S
C1944      H1949   1.083       .  S
C1945      C1946   1.400       .  A
C1946      H1950   1.083       .  S
C1947      C1952   1.402       .  A
C1952      C1953   1.392       .  A
C1952      H1957   1.083       .  S
C1953      C1954   1.406       .  A
C1953      H1958   1.083       .  S
C1955      C1956   1.404       .  A
C1955      H1959   1.083       .  S
C1956      H1960   1.083       .  S
C1961      C1962   1.404       .  A
C1961      C1966   1.395       .  A
C1961      H1971   1.083       .  S
C1962      C1967   1.476       .  S
C1962      C1963   1.403       .  A
C1963      C1964   1.393       .  A
C1963      H1968   1.083       .  S
C1964      C1965   1.404       .  A
C1964      H1969   1.083       .  S
C1965      C1966   1.405       .  A
C1966      H1970   1.083       .  S
C1967      C1972   1.402       .  A
C1967      C1976   1.402       .  A
C1972      C1973   1.394       .  A
C1972      H1977   1.083       .  S
C1973      C1974   1.408       .  A
C1973      H1978   1.083       .  S
C1974      C1975   1.409       .  A
C1975      C1976   1.392       .  A
C1975      H1979   1.076       .  S
C1976      H1980   1.083       .  S
C1981      C1982   1.406       .  A
C1981      C1986   1.395       .  A
C1981      H1991   1.083       .  S
C1982      C1987   1.490       .  S
C1982      C1983   1.409       .  A
C1983      C1984   1.404       .  A
C1983      H1988   1.083       .  S
C1984      C1985   1.402       .  A
C1984      H1989   1.082       .  S
C1985      C1986   1.404       .  A
C1986      H1990   1.083       .  S
C1987      C1992   1.406       .  A
C1987      C1996   1.407       .  A
C1992      C1993   1.398       .  A
C1992      H1997   1.083       .  S
C1993      C1994   1.406       .  A
C1993      H1998   1.083       .  S
C1994      C1995   1.406       .  A
C1995      C1996   1.401       .  A
C1995      H1999   1.083       .  S
C1996      H2000   1.083       .  S
C2001      C2002   1.408       .  A
C2001      C2006   1.402       .  A
C2001      H2011   1.082       .  S
C2002      C2007   1.498       .  S
C2002      C2003   1.409       .  A
C2003      C2004   1.401       .  A
C2003      H2008   1.082       .  S
C2004      C2005   1.406       .  A
C2004      H2009   1.083       .  S
C2005      C2006   1.407       .  A
C2006      H2010   1.083       .  S
C2007      C2012   1.409       .  A
C2007      C2016   1.409       .  A
C2012      C2013   1.402       .  A
C2012      H2017   1.082       .  S
C2013      C2014   1.406       .  A
C2013      H2018   1.083       .  S
C2014      C2015   1.405       .  A
C2015      C2016   1.401       .  A
C2015      H2019   1.083       .  S
C2016      H2020   1.082       .  S
C2021      C2022   1.408       .  A
C2021      C2026   1.398       .  A
C2021      H2031   1.082       .  S
C2022      C2027   1.490       .  S
C2022      C2023   1.407       .  A
C2023      C2024   1.397       .  A
C2023      H2028   1.082       .  S
C2024      C2025   1.405       .  A
C2024      H2029   1.083       .  S
C2025      C2026   1.404       .  A
C2026      H2030   1.083       .  S
C2027      C2032   1.407       .  A
C2027      C2036   1.408       .  A
C2032      C2033   1.397       .  A
C2032      H2037   1.082       .  S
C2033      C2034   1.404       .  A
C2033      H2038   1.083       .  S
C2034      C2035   1.404       .  A
C2035      C2036   1.398       .  A
C2035      H2039   1.083       .  S
C2036      H2040   1.082       .  S
C2041      C2042   1.405       .  A
C2041      C2046   1.403       .  A
C2041      H2051   1.083       .  S
C2042      C2047   1.481       .  S
C2043      C2044   1.394       .  A
C2043      H2048   1.083       .  S
C2044      H2049   1.082       .  S
C2045      C2046   1.406       .  A
C2046      H2050   1.076       .  S
C2047      C2056   1.401       .  A
C2052      C2053   1.399       .  A
C2052      H2057   1.083       .  S
C2053      H2058   1.083       .  S
C2054      C2055   1.409       .  A
C2055      C2056   1.398       .  A
C2055      H2059   1.083       .  S
C2056      H2060   1.083       .  S
C2061      C2062   1.403       .  A
C2061      C2066   1.396       .  A
C2061      H2071   1.083       .  S
C2062      C2067   1.482       .  S
C2062      C2063   1.403       .  A
C2063      C2064   1.394       .  A
C2063      H2068   1.083       .  S
C2064      C2065   1.410       .  A
C2064      H2069   1.076       .  S
C2065      C2066   1.409       .  A
C2066      H2070   1.083       .  S
C2067      C2072   1.405       .  A
C2067      C2076   1.405       .  A
C2072      C2073   1.397       .  A
C2072      H2077   1.083       .  S
C2073      C2074   1.405       .  A
C2073      H2078   1.083       .  S
C2074      C2075   1.404       .  A
C2075      C2076   1.395       .  A
C2075      H2079   1.083       .  S
C2076      H2080   1.083       .  S
C2081      C2082   1.406       .  A
C2081      C2086   1.397       .  A
C2081      H2091   1.083       .  S
C2082      C2087   1.495       .  S
C2082      C2083   1.411       .  A
C2083      C2084   1.406       .  A
C2083      H2088   1.083       .  S
C2084      C2085   1.402       .  A
C2084      H2089   1.083       .  S
C2085      C2086   1.404       .  A
C2086      H2090   1.084       .  S
C2087      C2092   1.407       .  A
C2087      C2096   1.408       .  A
C2092      C2093   1.403       .  A
C2092      H2097   1.083       .  S
C2093      C2094   1.407       .  A
C2093      H2098   1.083       .  S
C2094      C2095   1.407       .  A
C2095      C2096   1.401       .  A
C2095      H2099   1.083       .  S
C2096      H2100   1.083       .  S
C2101      C2102   1.409       .  A
C2101      C2106   1.401       .  A
C2101      H2111   1.082       .  S
C2102      C2107   1.498       .  S
C2102      C2103   1.409       .  A
C2103      C2104   1.400       .  A
C2103      H2108   1.082       .  S
C2104      C2105   1.405       .  A
C2104      H2109   1.083       .  S
C2105      C2106   1.406       .  A
C2106      H2110   1.083       .  S
C2107      C2112   1.409       .  A
C2107      C2116   1.409       .  A
C2112      C2113   1.400       .  A
C2112      H2117   1.082       .  S
C2113      C2114   1.406       .  A
C2113      H2118   1.083       .  S
C2114      C2115   1.405       .  A
C2115      C2116   1.401       .  A
C2115      H2119   1.083       .  S
C2116      H2120   1.082       .  S
C2121      C2122   1.406       .  A
C2121      C2126   1.394       .  A
C2121      H2131   1.083       .  S
C2122      C2127   1.484       .  S
C2122      C2123   1.407       .  A
C2123      C2124   1.396       .  A
C2123      H2128   1.083       .  S
C2124      C2125   1.403       .  A
C2124      H2129   1.083       .  S
C2125      C2126   1.403       .  A
C2126      H2130   1.083       .  S
C2127      C2132   1.406       .  A
C2127      C2136   1.406       .  A
C2132      C2133   1.395       .  A
C2132      H2137   1.083       .  S
C2133      C2134   1.404       .  A
C2133      H2138   1.083       .  S
C2134      C2135   1.404       .  A
C2135      C2136   1.395       .  A
C2135      H2139   1.083       .  S
C2136      H2140   1.082       .  S
C2141      C2142   1.406       .  A
C2141      C2146   1.400       .  A
C2141      H2151   1.082       .  S
C2142      C2147   1.492       .  S
C2143      C2144   1.397       .  A
C2143      H2148   1.082       .  S
C2144      H2149   1.083       .  S
C2145      C2146   1.407       .  A
C2146      H2150   1.083       .  S
C2147      C2152   1.411       .  A
C2152      C2153   1.404       .  A
C2152      H2157   1.082       .  S
C2153      C2154   1.401       .  A
C2153      H2158   1.083       .  S
C2155      C2156   1.393       .  A
C2155      H2159   1.084       .  S
C2156      H2160   1.082       .  S
C2161      C2162   1.408       .  A
C2161      C2166   1.402       .  A
C2161      H2171   1.083       .  S
C2162      C2167   1.480       .  S
C2163      C2164   1.393       .  A
C2163      H2168   1.083       .  S
C2164      H2169   1.083       .  S
C2165      C2166   1.402       .  A
C2166      H2170   1.083       .  S
C2167      C2172   1.402       .  A
C2167      C2176   1.405       .  A
C2172      C2173   1.396       .  A
C2172      H2177   1.083       .  S
C2173      C2174   1.407       .  A
C2173      H2178   1.082       .  S
C2174      C2175   1.405       .  A
C2175      C2176   1.399       .  A
C2181      C2182   1.403       .  A
C2181      C2186   1.394       .  A
C2181      H2191   1.083       .  S
C2182      C2187   1.478       .  S
C2182      C2183   1.402       .  A
C2183      C2184   1.394       .  A
C2183      H2188   1.083       .  S
C2184      C2185   1.410       .  A
C2184      H2189   1.076       .  S
C2185      C2186   1.408       .  A
C2186      H2190   1.083       .  S
C2187      C2192   1.404       .  A
C2187      C2196   1.405       .  A
C2192      C2193   1.395       .  A
C2192      H2197   1.083       .  S
C2193      C2194   1.406       .  A
C2193      H2198   1.083       .  S
C2194      C2195   1.403       .  A
C2195      C2196   1.394       .  A
C2195      H2199   1.083       .  S
C2196      H2200   1.083       .  S
C2201      C2202   1.409       .  A
C2201      C2206   1.405       .  A
C2201      H2211   1.083       .  S
C2202      C2207   1.490       .  S
C2202      C2203   1.405       .  A
C2203      C2204   1.395       .  A
C2203      H2208   1.083       .  S
C2204      C2205   1.405       .  A
C2204      H2209   1.083       .  S
C2205      C2206   1.403       .  A
C2206      H2210   1.082       .  S
C2207      C2212   1.407       .  A
C2207      C2216   1.405       .  A
C2212      C2213   1.403       .  A
C2212      H2217   1.083       .  S
C2213      C2214   1.407       .  A
C2213      H2218   1.083       .  S
C2214      C2215   1.406       .  A
C2215      C2216   1.397       .  A
C2215      H2219   1.083       .  S
C2216      H2220   1.083       .  S
C2221      C2222   1.407       .  A
C2221      C2226   1.397       .  A
C2221      H2231   1.082       .  S
C2222      C2227   1.497       .  S
C2222      C2223   1.410       .  A
C2223      C2224   1.403       .  A
C2223      H2228   1.082       .  S
C2224      C2225   1.405       .  A
C2224      H2229   1.083       .  S
C2225      C2226   1.405       .  A
C2226      H2230   1.083       .  S
C2227      C2232   1.410       .  A
C2227      C2236   1.408       .  A
C2232      C2233   1.400       .  A
C2232      H2237   1.082       .  S
C2233      C2234   1.404       .  A
C2233      H2238   1.083       .  S
C2234      C2235   1.406       .  A
C2235      C2236   1.401       .  A
C2235      H2239   1.083       .  S
C2236      H2240   1.082       .  S
C2241      C2242   1.406       .  A
C2241      C2246   1.394       .  A
C2241      H2251   1.082       .  S
C2242      C2247   1.485       .  S
C2242      C2243   1.407       .  A
C2243      C2244   1.396       .  A
C2243      H2248   1.082       .  S
C2244      C2245   1.404       .  A
C2244      H2249   1.083       .  S
C2245      C2246   1.404       .  A
C2246      H2250   1.083       .  S
C2247      C2252   1.407       .  A
C2247      C2256   1.406       .  A
C2252      C2253   1.396       .  A
C2252      H2257   1.082       .  S
C2253      C2254   1.404       .  A
C2253      H2258   1.083       .  S
C2254      C2255   1.403       .  A
C2255      C2256   1.395       .  A
C2255      H2259   1.083       .  S
C2256      H2260   1.082       .  S
C2261      C2262   1.402       .  A
C2261      C2266   1.395       .  A
C2261      H2271   1.083       .  S
C2262      C2267   1.485       .  S
C2263      C2264   1.401       .  A
C2263      H2268   1.083       .  S
C2264      H2269   1.079       .  S
C2265      C2266   1.410       .  A
C2266      H2270   1.081       .  S
C2267      C2272   1.403       .  A
C2267      C2276   1.408       .  A
C2272      C2273   1.397       .  A
C2272      H2277   1.083       .  S
C2273      C2274   1.407       .  A
C2273      H2278   1.083       .  S
C2274      C2275   1.404       .  A
C2275      C2276   1.399       .  A
C2275      H2279   1.083       .  S
C2276      H2280   1.083       .  S
C2281      C2282   1.402       .  A
C2281      C2286   1.394       .  A
C2281      H2291   1.083       .  S
C2282      C2287   1.478       .  S
C2282      C2283   1.402       .  A
C2283      C2284   1.394       .  A
C2283      H2288   1.083       .  S
C2284      C2285   1.409       .  A
C2284      H2289   1.076       .  S
C2285      C2286   1.409       .  A
C2286      H2290   1.083       .  S
C2287      C2292   1.404       .  A
C2287      C2296   1.404       .  A
C2292      C2293   1.395       .  A
C2292      H2297   1.083       .  S
C2293      C2294   1.405       .  A
C2293      H2298   1.083       .  S
C2294      C2295   1.404       .  A
C2295      C2296   1.394       .  A
C2295      H2299   1.083       .  S
C2296      H2300   1.083       .  S
C2301      C2302   1.407       .  A
C2301      C2306   1.398       .  A
C2301      H2311   1.083       .  S
C2302      C2307   1.494       .  S
C2302      C2303   1.408       .  A
C2303      C2304   1.402       .  A
C2303      H2308   1.083       .  S
C2304      C2305   1.406       .  A
C2304      H2309   1.083       .  S
C2305      C2306   1.406       .  A
C2306      H2310   1.083       .  S
C2307      C2312   1.411       .  A
C2307      C2316   1.406       .  A
C2312      C2313   1.406       .  A
C2312      H2317   1.082       .  S
C2313      C2314   1.402       .  A
C2313      H2318   1.083       .  S
C2314      C2315   1.403       .  A
C2315      C2316   1.395       .  A
C2315      H2319   1.084       .  S
C2316      H2320   1.082       .  S
C2321      C2322   1.410       .  A
C2321      C2326   1.402       .  A
C2321      H2331   1.082       .  S
C2322      C2327   1.499       .  S
C2322      C2323   1.408       .  A
C2323      C2324   1.400       .  A
C2323      H2328   1.082       .  S
C2324      C2325   1.406       .  A
C2324      H2329   1.083       .  S
C2325      C2326   1.405       .  A
C2326      H2330   1.083       .  S
C2327      C2332   1.409       .  A
C2327      C2336   1.410       .  A
C2332      C2333   1.401       .  A
C2332      H2337   1.082       .  S
C2333      C2334   1.405       .  A
C2333      H2338   1.083       .  S
C2334      C2335   1.405       .  A
C2335      C2336   1.401       .  A
C2335      H2339   1.083       .  S
C2336      H2340   1.082       .  S
C2341      C2342   1.405       .  A
C2341      C2346   1.396       .  A
C2341      H2351   1.083       .  S
C2342      C2347   1.482       .  S
C2342      C2343   1.406       .  A
C2343      C2344   1.393       .  A
C2343      H2348   1.083       .  S
C2344      C2345   1.403       .  A
C2344      H2349   1.083       .  S
C2345      C2346   1.405       .  A
C2346      H2350   1.083       .  S
C2347      C2352   1.406       .  A
C2347      C2356   1.406       .  A
C2352      C2353   1.397       .  A
C2352      H2357   1.083       .  S
C2353      C2354   1.404       .  A
C2353      H2358   1.083       .  S
C2354      C2355   1.402       .  A
C2355      C2356   1.392       .  A
C2355      H2359   1.083       .  S
C2356      H2360   1.083       .  S
C2361      C2366   1.400       .  A
C2361      H2371   1.083       .  S
C2362      C2367   1.484       .  S
C2362      C2363   1.406       .  A
C2363      C2364   1.399       .  A
C2363      H2368   1.083       .  S
C2364      C2365   1.404       .  A
C2364      H2369   1.083       .  S
C2366      H2370   1.083       .  S
C2367      C2372   1.403       .  A
C2367      C2376   1.406       .  A
C2372      C2373   1.396       .  A
C2373      C2374   1.407       .  A
C2374      C2375   1.405       .  A
C2375      C2376   1.401       .  A
C2375      H2379   1.082       .  S
C2376      H2380   1.083       .  S
C2381      C2382   1.401       .  A
C2381      C2386   1.394       .  A
C2381      H2391   1.083       .  S
C2382      C2387   1.487       .  S
C2383      C2384   1.405       .  A
C2383      H2388   1.083       .  S
C2384      H2389   1.076       .  S
C2385      C2386   1.409       .  A
C2386      H2390   1.082       .  S
C2387      C2396   1.402       .  A
C2392      C2393   1.402       .  A
C2392      H2397   1.083       .  S
C2393      H2398   1.083       .  S
C2394      C2395   1.407       .  A
C2395      C2396   1.397       .  A
C2395      H2399   1.083       .  S
C2396      H2400   1.083       .  S
C2401      C2402   1.401       .  A
C2401      C2406   1.393       .  A
C2401      H2411   1.083       .  S
C2402      C2407   1.474       .  S
C2402      C2403   1.401       .  A
C2403      C2404   1.395       .  A
C2403      H2408   1.083       .  S
C2404      C2405   1.410       .  A
C2404      H2409   1.077       .  S
C2405      C2406   1.409       .  A
C2406      H2410   1.083       .  S
C2407      C2412   1.403       .  A
C2407      C2416   1.403       .  A
C2412      C2413   1.394       .  A
C2412      H2417   1.083       .  S
C2413      C2414   1.405       .  A
C2413      H2418   1.083       .  S
C2414      C2415   1.405       .  A
C2415      C2416   1.395       .  A
C2415      H2419   1.083       .  S
C2416      H2420   1.083       .  S
C2421      C2422   1.408       .  A
C2421      C2426   1.403       .  A
C2421      H2431   1.083       .  S
C2422      C2427   1.492       .  S
C2422      C2423   1.406       .  A
C2423      C2424   1.397       .  A
C2423      H2428   1.083       .  S
C2424      C2425   1.406       .  A
C2424      H2429   1.083       .  S
C2425      C2426   1.407       .  A
C2426      H2430   1.083       .  S
C2427      C2432   1.409       .  A
C2427      C2436   1.405       .  A
C2432      C2433   1.405       .  A
C2432      H2437   1.083       .  S
C2433      C2434   1.404       .  A
C2433      H2438   1.083       .  S
C2434      C2435   1.405       .  A
C2435      C2436   1.395       .  A
C2435      H2439   1.083       .  S
C2436      H2440   1.083       .  S
C2441      C2442   1.409       .  A
C2441      C2446   1.401       .  A
C2441      H2451   1.082       .  S
C2442      C2447   1.500       .  S
C2442      C2443   1.409       .  A
C2443      C2444   1.402       .  A
C2443      H2448   1.082       .  S
C2444      C2445   1.406       .  A
C2444      H2449   1.083       .  S
C2445      C2446   1.406       .  A
C2446      H2450   1.083       .  S
C2447      C2452   1.409       .  A
C2447      C2456   1.410       .  A
C2452      C2453   1.400       .  A
C2452      H2457   1.082       .  S
C2453      C2454   1.405       .  A
C2453      H2458   1.083       .  S
C2454      C2455   1.405       .  A
C2455      C2456   1.403       .  A
C2455      H2459   1.083       .  S
C2456      H2460   1.082       .  S
C2461      C2462   1.406       .  A
C2461      C2466   1.395       .  A
C2461      H2471   1.082       .  S
C2462      C2467   1.486       .  S
C2462      C2463   1.407       .  A
C2463      C2464   1.397       .  A
C2463      H2468   1.083       .  S
C2464      C2465   1.403       .  A
C2464      H2469   1.083       .  S
C2465      C2466   1.403       .  A
C2466      H2470   1.083       .  S
C2467      C2472   1.406       .  A
C2467      C2476   1.407       .  A
C2472      C2473   1.396       .  A
C2472      H2477   1.082       .  S
C2473      C2474   1.404       .  A
C2473      H2478   1.083       .  S
C2474      C2475   1.404       .  A
C2475      C2476   1.396       .  A
C2475      H2479   1.083       .  S
C2476      H2480   1.083       .  S
C2481      C2482   1.408       .  A
C2481      C2486   1.401       .  A
C2481      H2491   1.083       .  S
C2482      C2487   1.490       .  S
C2483      C2484   1.397       .  A
C2483      H2488   1.083       .  S
C2484      H2489   1.084       .  S
C2485      C2486   1.402       .  A
C2486      H2490   1.080       .  S
C2487      C2492   1.406       .  A
C2492      C2493   1.399       .  A
C2492      H2497   1.082       .  S
C2493      C2494   1.403       .  A
C2493      H2498   1.084       .  S
C2495      C2496   1.401       .  A
C2495      H2499   1.083       .  S
C2496      H2500   1.083       .  S
C2501      C2506   1.396       .  A
C2501      H2511   1.083   1_554  S
C2502      C2507   1.482       .  S
C2502      C2503   1.406       .  A
C2503      C2504   1.402       .  A
C2503      H2508   1.083       .  S
C2504      C2505   1.406       .  A
C2504      H2509   1.082       .  S
C2506      H2510   1.082   1_554  S
C2507      C2512   1.403       .  A
C2507      C2516   1.405       .  A
C2512      C2513   1.399       .  A
C2513      C2514   1.408       .  A
C2513      H2518   1.083       .  S
C2514      C2515   1.405       .  A
C2515      C2516   1.399       .  A
C2515      H2519   1.083       .  S
C2516      H2520   1.083       .  S
C2521      C2522   1.402       .  A
C2521      C2526   1.395       .  A
C2521      H2531   1.083       .  S
C2522      C2527   1.478       .  S
C2522      C2523   1.402       .  A
C2523      C2524   1.394       .  A
C2523      H2528   1.083       .  S
C2524      C2525   1.409       .  A
C2524      H2529   1.077       .  S
C2525      C2526   1.409       .  A
C2526      H2530   1.083       .  S
C2527      C2532   1.404       .  A
C2527      C2536   1.404       .  A
C2532      C2533   1.396       .  A
C2532      H2537   1.083       .  S
C2533      C2534   1.406       .  A
C2533      H2538   1.083       .  S
C2534      C2535   1.404       .  A
C2535      C2536   1.394       .  A
C2535      H2539   1.083       .  S
C2536      H2540   1.083       .  S
C2541      C2542   1.406       .  A
C2541      C2546   1.397       .  A
C2541      H2551   1.083       .  S
C2542      C2547   1.493       .  S
C2542      C2543   1.409       .  A
C2543      C2544   1.405       .  A
C2543      H2548   1.083       .  S
C2544      C2545   1.403       .  A
C2544      H2549   1.083       .  S
C2545      C2546   1.404       .  A
C2546      H2550   1.083       .  S
C2547      C2552   1.406       .  A
C2547      C2556   1.408       .  A
C2552      C2553   1.399       .  A
C2552      H2557   1.083       .  S
C2553      C2554   1.407       .  A
C2553      H2558   1.083       .  S
C2554      C2555   1.407       .  A
C2555      C2556   1.403       .  A
C2555      H2559   1.083       .  S
C2556      H2560   1.083       .  S
