geometry optimzed in LAMMPS
_audit_creation_date              2020-11-30 
_audit_creation_method            'lammps2cif' 
_symmetry_space_group_name_H-M    'P1' 
_symmetry_Int_Tables_number       1 
_symmetry_cell_setting            triclinic 
loop_ 
_symmetry_equiv_pos_as_xyz 
  x,y,z 
_cell_length_a                    62.63452669 
_cell_length_b                    62.416455644358194 
_cell_length_c                    37.716458493663104 
_cell_angle_alpha                 90.37115325549028 
_cell_angle_beta                  89.50006862715873 
_cell_angle_gamma                 119.97144822785803 
loop_ 
_atom_site_label 
_atom_site_type_symbol 
_atom_site_fract_x 
_atom_site_fract_y 
_atom_site_fract_z 
_atom_site_charge 
O1          O  0.60673738  0.41614914  0.48037338    -0.88700
C2          C  0.55900357  0.38636095  0.39897904     0.87300
Mg3        Mg  0.59408322  0.41176976  0.53436982     1.58100
O4          O  0.58578380  0.45041538  0.40812923    -0.88500
O5          O  0.62888649  0.44549557  0.44227295    -0.75800
C6          C  0.50689748  0.44281136  0.53706766     0.92300
O7          O  0.55454500  0.36653262  0.47724528    -0.75600
O8          O  0.51252219  0.42770257  0.55065960    -0.83100
Mg9        Mg  0.59212799  0.38346187  0.44849004     1.58000
C10         C  0.54481311  0.48468710  0.39958800     0.92300
O11         O  0.62956313  0.39707919  0.41948452    -0.81400
H12         H  0.61578967  0.48400988  0.40972490    -0.06700
C13         C  0.51646947  0.41097807  0.45152481     0.87200
O14         O  0.59790669  0.45045546  0.53313505    -0.75900
O15         O  0.57999988  0.40001956  0.41051146    -0.88600
O16         O  0.54924360  0.46905525  0.38451559    -0.81500
C17         C  0.57396205  0.43062952  0.31739937     0.92400
C18         C  0.63989148  0.40762462  0.39034307     0.92200
Mg19       Mg  0.55203302  0.46421105  0.47442453     1.58000
O20         O  0.51665537  0.45407432  0.50796721    -0.81400
O21         O  0.58878417  0.47945933  0.44416809    -0.75600
O22         O  0.59015732  0.42738834  0.33305843    -0.81500
O23         O  0.60301271  0.36403508  0.48794929    -0.83200
O24         O  0.55280455  0.41960145  0.58641421    -0.81500
C25         C  0.59743848  0.47175734  0.41982836     0.86700
O26         O  0.56352427  0.44624011  0.51167656    -0.88600
O27         O  0.53596193  0.43008329  0.44461723    -0.88700
O28         O  0.51310679  0.40003354  0.48095389    -0.75800
Mg29       Mg  0.60757360  0.43486250  0.38949533     1.58000
O30         O  0.55900481  0.43491832  0.33458898    -0.83200
H31         H  0.63964525  0.44493846  0.49273389    -0.06900
O32         O  0.55685119  0.39470238  0.51462499    -0.88400
H33         H  0.52699732  0.36105508  0.51132048    -0.06700
H34         H  0.59094100  0.47877433  0.52857410    -0.06900
C35         C  0.54545591  0.37361252  0.50187876     0.86700
C36         C  0.62567574  0.43568512  0.47273863     0.87200
C37         C  0.58413747  0.45922509  0.52488449     0.87300
H38         H  0.50240703  0.40280854  0.43141564    -0.06900
O39         O  0.54423925  0.39426199  0.39286767    -0.75900
Mg40       Mg  0.53535948  0.41099876  0.53210525     1.58000
H41         H  0.55264399  0.36688166  0.39554872    -0.06900
C42         C  0.59849032  0.36020956  0.52093407     0.92300
O43         O  0.58202997  0.40963490  0.59242535    -0.83100
C44         C  0.56767176  0.41661964  0.60561301     0.92300
O45         O  0.63181813  0.41899772  0.37167424    -0.83100
Mg46       Mg  0.54805847  0.43265992  0.39135313     1.58200
O47         O  0.59280821  0.37373570  0.53992248    -0.81500
O48         O  0.54143054  0.48437819  0.43307424    -0.83100
O49         O  0.61541141  0.42218148  0.97834651    -0.88700
C50         C  0.56757136  0.39492909  0.89624089     0.87300
Mg51       Mg  0.60391513  0.41788329  0.03201421     1.58100
O52         O  0.59465481  0.45938321  0.90498731    -0.88500
O53         O  0.63687946  0.45301470  0.94185389    -0.75800
C54         C  0.51920552  0.45257021  0.03637550     0.92300
O55         O  0.56151149  0.37432985  0.97597235    -0.75600
O56         O  0.52635229  0.43991285  0.05382180    -0.83100
Mg57       Mg  0.59855846  0.38953941  0.94632594     1.58000
C58         C  0.54910943  0.49089234  0.89994183     0.92300
O59         O  0.63492322  0.40102158  0.91701549    -0.81400
H60         H  0.62444915  0.49314803  0.90446761    -0.06700
C61         C  0.52691932  0.41923348  0.95184719     0.87200
O62         O  0.60955976  0.45751389  0.03180043    -0.75900
O63         O  0.58782205  0.40825902  0.91006361    -0.88600
O64         O  0.55490764  0.47760781  0.88064779    -0.81500
C65         C  0.58367535  0.43756429  0.81536641     0.92400
C66         C  0.64599187  0.41265121  0.88898601     0.92200
Mg67       Mg  0.56271625  0.47178701  0.97314347     1.58000
O68         O  0.52745967  0.46060506  0.00537592    -0.81400
O69         O  0.59892825  0.48843780  0.94174149    -0.75600
O70         O  0.59895942  0.43491866  0.83427089    -0.81500
O71         O  0.60801482  0.36781919  0.98387390    -0.83200
O72         O  0.56633652  0.42848006  0.09001741    -0.81500
C73         C  0.60660107  0.48083868  0.91605724     0.86700
O74         O  0.57565671  0.45455797  0.01067558    -0.88600
O75         O  0.54596387  0.43814171  0.94250711    -0.88700
O76         O  0.52440839  0.41025663  0.98282915    -0.75800
Mg77       Mg  0.61600187  0.44279406  0.88925621     1.58000
O78         O  0.56843850  0.44329821  0.82899425    -0.83200
H79         H  0.64807533  0.45102691  0.99138663    -0.06900
O80         O  0.56634023  0.40242135  0.01533459    -0.88400
H81         H  0.53509425  0.36994105  0.01149307    -0.06700
H82         H  0.60400614  0.48677536  0.02683004    -0.06900
C83         C  0.55365822  0.38174733  0.00178774     0.86700
C84         C  0.63411345  0.44210615  0.97128886     0.87200
C85         C  0.59651201  0.46709523  0.02335352     0.87300
H86         H  0.51215126  0.40985772  0.93299830    -0.06900
O87         O  0.55339282  0.40314712  0.88813515    -0.75900
Mg88       Mg  0.54728020  0.42084480  0.03440557     1.58000
H89         H  0.56139006  0.37554002  0.89214550    -0.06900
C90         C  0.60434603  0.36436828  0.01702523     0.92300
O91         O  0.59330282  0.41510628  0.08907385    -0.83100
C92         C  0.58072048  0.42269753  0.10594621     0.92300
O93         O  0.63955198  0.42619206  0.87236248    -0.83100
Mg94       Mg  0.55679859  0.44139426  0.88733601     1.58200
O95         O  0.60055932  0.37899431  0.03651327    -0.81500
O96         O  0.54932921  0.49001723  0.93369817    -0.83100
O97         O  0.39795560  0.58505117  0.23307255    -0.88700
C98         C  0.44709532  0.61330165  0.15193995     0.87300
Mg99       Mg  0.40990652  0.59103373  0.28708477     1.58100
O100        O  0.42112488  0.54943741  0.16182985    -0.88500
O101        O  0.37756833  0.55437762  0.19579557    -0.75800
C102        C  0.49631824  0.56096836  0.29550112     0.92300
O103        O  0.44991692  0.63552600  0.22871279    -0.75600
O104        O  0.49031036  0.57629358  0.30732066    -0.83100
Mg105      Mg  0.41261858  0.61711193  0.19990065     1.58000
C106        C  0.46386306  0.51612773  0.15938358     0.92300
O107        O  0.37514792  0.60176376  0.17094418    -0.81400
H108        H  0.39133209  0.51570498  0.16351717    -0.06700
C109        C  0.48896678  0.59070681  0.20626452     0.87200
O110        O  0.40620550  0.55244041  0.28875336    -0.75900
O111        O  0.42602658  0.59985758  0.16377537    -0.88600
O112        O  0.45917857  0.53022944  0.14060953    -0.81500
C113        C  0.43421423  0.56927179  0.07096625     0.92400
C114        C  0.36561906  0.59036839  0.14202277     0.92200
Mg115      Mg  0.45325845  0.53827712  0.23151571     1.58000
O116        O  0.48795525  0.54944926  0.26619255    -0.81400
O117        O  0.41721657  0.52152024  0.20014798    -0.75600
O118        O  0.41808405  0.57250740  0.08738417    -0.81500
O119        O  0.40097565  0.63763520  0.23785891    -0.83200
O120        O  0.45077119  0.58559164  0.34060683    -0.81500
C121        C  0.40929110  0.52836765  0.17423609     0.86700
O122        O  0.44066392  0.55686898  0.26665823    -0.88600
O123        O  0.46999451  0.57112347  0.19929463    -0.88700
O124        O  0.49132758  0.60210456  0.23521175    -0.75800
Mg125      Mg  0.39941713  0.56464721  0.14308734     1.58000
O126        O  0.44873080  0.56410155  0.08738491    -0.83200
H127        H  0.36564102  0.55539667  0.24567363    -0.06900
O128        O  0.44722104  0.60804398  0.26708418    -0.88400
H129        H  0.47691334  0.64181698  0.26370088    -0.06700
H130        H  0.41398649  0.52456543  0.28560259    -0.06900
C131        C  0.45868728  0.62897712  0.25400004     0.86700
C132        C  0.37977986  0.56479732  0.22573769     0.87200
C133        C  0.42027699  0.54388430  0.28076950     0.87300
H134        H  0.50349129  0.59886236  0.18656824    -0.06900
O135        O  0.46175720  0.60518871  0.14552003    -0.75900
Mg136      Mg  0.46842608  0.59250055  0.28624194     1.58000
H137        H  0.45353066  0.63274483  0.14809057    -0.06900
C138        C  0.40592820  0.64216761  0.27064485     0.92300
O139        O  0.42139882  0.59541811  0.34542185    -0.83100
C140        C  0.43594811  0.58920116  0.35939349     0.92300
O141        O  0.37483069  0.57941118  0.12439563    -0.83100
Mg142      Mg  0.45896765  0.56703163  0.14522499     1.58200
O143        O  0.41139226  0.62879004  0.28974381    -0.81500
O144        O  0.46532434  0.51799142  0.19309918    -0.83100
O145        O  0.38314627  0.57634162  0.73492245    -0.88700
C146        C  0.43233848  0.60988009  0.65578885     0.87300
Mg147      Mg  0.39512317  0.57946231  0.78856975     1.58100
O148        O  0.40649916  0.54549292  0.65700432    -0.88500
O149        O  0.36239619  0.54782036  0.69507045    -0.75800
C150        C  0.48181408  0.54651040  0.78432893     0.92300
O151        O  0.43560395  0.62572009  0.73599878    -0.75600
O152        O  0.47498952  0.55933884  0.80266501    -0.83100
Mg153      Mg  0.39856955  0.61022091  0.70624363     1.58000
C154        C  0.45083723  0.51467724  0.64217515     0.92300
O155        O  0.36223791  0.59890600  0.67671068    -0.81400
H156        H  0.37691900  0.51168097  0.65401812    -0.06700
C157        C  0.47406818  0.58307393  0.70453138     0.87200
O158        O  0.39083434  0.54041594  0.78442546    -0.75900
O159        O  0.41151033  0.59520259  0.66714328    -0.88600
O160        O  0.44591604  0.53028155  0.62848287    -0.81500
C161        C  0.41936398  0.57201282  0.56968103     0.92400
C162        C  0.35292028  0.58942210  0.64678513     0.92200
Mg163      Mg  0.43831675  0.52920887  0.72063117     1.58000
O164        O  0.47312861  0.53842671  0.75343323    -0.81400
O165        O  0.40245885  0.51471639  0.68945062    -0.75600
O166        O  0.40287745  0.57284249  0.58862634    -0.81500
O167        O  0.38626359  0.62758603  0.74650987    -0.83200
O168        O  0.43474282  0.56939641  0.84319931    -0.81500
C169        C  0.39472632  0.52351395  0.66581525     0.86700
O170        O  0.42520475  0.54460180  0.76193730    -0.88600
O171        O  0.45482801  0.56476007  0.69462660    -0.88700
O172        O  0.47653803  0.59120990  0.73603225    -0.75800
Mg173      Mg  0.38461226  0.56145589  0.64309583     1.58000
O174        O  0.43477316  0.56667125  0.58292301    -0.83200
H175        H  0.35056210  0.54648040  0.74571619    -0.06900
O176        O  0.43272952  0.59627535  0.77063938    -0.88400
H177        H  0.46280154  0.62986658  0.76920152    -0.06700
H178        H  0.39700529  0.51172582  0.77635038    -0.06900
C179        C  0.44442970  0.61771940  0.75936501     0.86700
C180        C  0.36472805  0.55671579  0.72613628     0.87200
C181        C  0.40426329  0.53145002  0.77441946     0.87300
H182        H  0.48891688  0.59278399  0.68567691    -0.06900
O183        O  0.44758710  0.60295164  0.64736385    -0.75900
Mg184      Mg  0.45310328  0.57831042  0.78692075     1.58000
H185        H  0.43812004  0.62933706  0.65462143    -0.06900
C186        C  0.39123456  0.63142536  0.77918475     0.92300
O187        O  0.40674538  0.58143614  0.84513889    -0.83100
C188        C  0.42052928  0.57491703  0.86063317     0.92300
O189        O  0.36080032  0.57765108  0.62836463    -0.83100
Mg190      Mg  0.44465485  0.56523737  0.64061039     1.58200
O191        O  0.39717868  0.61788057  0.79713264    -0.81500
O192        O  0.45139768  0.51243816  0.67580437    -0.83100
O193        O  0.19331944  0.59560059  0.05127440    -0.88700
C194        C  0.17506654  0.54881726  0.96776501     0.87300
Mg195      Mg  0.18393022  0.58279473  0.10432432     1.58100
O196        O  0.14038276  0.57837780  0.97445261    -0.88500
O197        O  0.18783163  0.61915675  0.01387405    -0.75800
C198        C  0.06349113  0.50273909  0.10121021     0.92300
O199        O  0.18709135  0.54157368  0.04689596    -0.75600
O200        O  0.08353126  0.50730469  0.11599897    -0.83100
Mg201      Mg  0.21023847  0.57957921  0.01998188     1.58000
C202        C  0.06485538  0.53931225  0.96050366     0.92300
O203        O  0.23585866  0.61735641  0.99442546    -0.81400
H204        H  0.13842515  0.60936535  0.97440840    -0.06700
C205        C  0.10622160  0.50858069  0.01656355     0.87200
O206        O  0.15067246  0.58932548  0.10174729    -0.75900
O207        O  0.18277777  0.56960251  0.98084944    -0.88600
O208        O  0.08498955  0.54359095  0.94579548    -0.81500
C209        C  0.15249710  0.56843186  0.88451230     0.92400
C210        C  0.23728000  0.62926549  0.96639148     0.92200
Mg211      Mg  0.09115698  0.54645442  0.03774310     1.58000
O212        O  0.06335845  0.51178109  0.07086230    -0.81400
O213        O  0.11447607  0.58304479  0.00828412    -0.75600
O214        O  0.17069229  0.58295418  0.90382133    -0.81500
O215        O  0.23936027  0.58843384  0.06018051    -0.83200
O216        O  0.13298294  0.54441756  0.15491062    -0.81500
C217        C  0.13130853  0.59091378  0.98480913     0.86700
O218        O  0.11983645  0.55670723  0.07711810    -0.88600
O219        O  0.10790100  0.52853564  0.00853199    -0.88700
O220        O  0.11210582  0.50488599  0.04711929    -0.75800
Mg221      Mg  0.17846215  0.59900433  0.96009888     1.58000
O222        O  0.13147197  0.55349480  0.89785907    -0.83200
H223        H  0.19823394  0.62875929  0.06499288    -0.06900
O224        O  0.16201768  0.54574371  0.08363406    -0.88400
H225        H  0.16308085  0.51431014  0.07971037    -0.06700
H226        H  0.11679911  0.58542214  0.09446839    -0.06900
C227        C  0.17046603  0.53316780  0.07086953     0.86700
C228        C  0.19361472  0.61509265  0.04430632     0.87200
C229        C  0.12841559  0.57727716  0.09132854     0.87300
H230        H  0.10033854  0.49418253  0.99671869    -0.06900
O231        O  0.15267606  0.53519764  0.95902834    -0.75900
Mg232      Mg  0.12365168  0.52697060  0.09921471     1.58000
H233        H  0.18751827  0.54161523  0.96510625    -0.06900
C234        C  0.23854408  0.58435257  0.09320893     0.92300
O235        O  0.17316500  0.57050074  0.16094558    -0.83100
C236        C  0.15167219  0.55779216  0.17417431     0.92300
O237        O  0.21911249  0.62231604  0.94555323    -0.83100
Mg238      Mg  0.11953545  0.54107456  0.95503085     1.58200
O239        O  0.21944341  0.57938335  0.11183792    -0.81500
O240        O  0.06172510  0.53672902  0.99412682    -0.83100
O241        O  0.19113732  0.61218259  0.54994280    -0.88700
C242        C  0.17681188  0.56500367  0.46797145     0.87300
Mg243      Mg  0.18150030  0.59882078  0.60300718     1.58100
O244        O  0.13817500  0.59037038  0.47137069    -0.88500
O245        O  0.18370771  0.63372587  0.51119261    -0.75800
C246        C  0.06468951  0.51185313  0.59765949     0.92300
O247        O  0.18930180  0.55973938  0.54689703    -0.75600
O248        O  0.08533611  0.51844246  0.61183473    -0.83100
Mg249      Mg  0.21028385  0.59775286  0.51981854     1.58000
C250        C  0.06290509  0.54549146  0.45516603     0.92300
O251        O  0.23431277  0.63519301  0.49317673    -0.81400
H252        H  0.13319681  0.61958687  0.46986885    -0.06700
C253        C  0.10822625  0.52121190  0.51432425     0.87200
O254        O  0.14646024  0.60242899  0.59927683    -0.75900
O255        O  0.18300955  0.58572468  0.48017100    -0.88600
O256        O  0.08390078  0.55183082  0.44148369    -0.81500
C257        C  0.15288123  0.57975628  0.38316878     0.92400
C258        C  0.23536563  0.64653183  0.46470680     0.92200
Mg259      Mg  0.08872456  0.55578326  0.53376371     1.58000
O260        O  0.06299024  0.52039444  0.56762338    -0.81400
O261        O  0.11005746  0.59250783  0.50353489    -0.75600
O262        O  0.17035314  0.59605038  0.40197132    -0.81500
O263        O  0.23932909  0.60874715  0.56095297    -0.83200
O264        O  0.13131058  0.55742268  0.65251558    -0.81500
C265        C  0.12734965  0.60147383  0.48070760     0.86700
O266        O  0.11747848  0.56866549  0.57396200    -0.88600
O267        O  0.10821495  0.54031616  0.50613340    -0.88700
O268        O  0.11496519  0.51851520  0.54476277    -0.75800
Mg269      Mg  0.17633800  0.61320471  0.45773582     1.58000
O270        O  0.13211194  0.56436590  0.39662544    -0.83200
H271        H  0.19299739  0.64426634  0.56239335    -0.06900
O272        O  0.16232183  0.56212552  0.58147425    -0.88400
H273        H  0.16604619  0.53211969  0.57982119    -0.06700
H274        H  0.11171356  0.59587858  0.59058692    -0.06900
C275        C  0.17233502  0.55063084  0.57023788     0.86700
C276        C  0.18970930  0.63065973  0.54210071     0.87200
C277        C  0.12449593  0.58906456  0.58809084     0.87300
H278        H  0.10334714  0.50687860  0.49461068    -0.06900
O279        O  0.15473933  0.54992728  0.45922979    -0.75900
Mg280      Mg  0.12447023  0.54085804  0.59629891     1.58000
H281        H  0.19036059  0.55912595  0.46625734    -0.06900
C282        C  0.23724158  0.60305400  0.59354926     0.92300
O283        O  0.17082737  0.58525714  0.65958965    -0.83100
C284        C  0.14957674  0.57075001  0.67244039     0.92300
O285        O  0.21697913  0.63885262  0.44404898    -0.83100
Mg286      Mg  0.11993743  0.55266867  0.45313975     1.58200
O287        O  0.21749326  0.59708255  0.61101133    -0.81500
O288        O  0.05932189  0.54298087  0.48878133    -0.83100
O289        O  0.80573902  0.41690731  0.26351717    -0.88700
C290        C  0.82644475  0.38622761  0.34096454     0.87300
Mg291      Mg  0.81248151  0.41226554  0.20943627     1.58100
O292        O  0.86269340  0.45104769  0.33543918    -0.88500
O293        O  0.81462216  0.44693290  0.30165742    -0.75800
C294        C  0.93229258  0.45027158  0.19749993     0.92300
O295        O  0.81003285  0.36788519  0.26208268    -0.75600
O296        O  0.91134743  0.43648585  0.18345165    -0.83100
Mg297      Mg  0.78899239  0.38366491  0.29373489     1.58000
C298        C  0.93817548  0.48386279  0.34352690     0.92300
O299        O  0.76534755  0.39620936  0.32543805    -0.81400
H300        H  0.86674765  0.48486115  0.33833784    -0.06700
C301        C  0.89335273  0.41393908  0.28422957     0.87200
O302        O  0.84655035  0.45205207  0.20985024    -0.75900
O303        O  0.81956513  0.40083439  0.32973112    -0.88600
O304        O  0.91801412  0.46859901  0.35862382    -0.81500
C305        C  0.85244694  0.42681761  0.42342442     0.92400
C306        C  0.76586635  0.40746404  0.35403574     0.92200
Mg307      Mg  0.90918472  0.46695827  0.26713215     1.58000
O308        O  0.93443905  0.45835469  0.22940059    -0.81400
O309        O  0.88842474  0.48134613  0.30120056    -0.75600
O310        O  0.83429969  0.42539709  0.40659454    -0.81500
O311        O  0.75800595  0.36510498  0.25724636    -0.83200
O312        O  0.86013126  0.42404300  0.15016841    -0.81500
C313        C  0.87247776  0.47286193  0.32595147     0.86700
O314        O  0.87849528  0.45007482  0.22940715    -0.88600
O315        O  0.89197050  0.43199584  0.29467122    -0.88700
O316        O  0.88644426  0.40506579  0.25334630    -0.75800
Mg317      Mg  0.82548951  0.43560901  0.35338361     1.58000
O318        O  0.87277608  0.43213537  0.40826470    -0.83200
H319        H  0.80178695  0.44597175  0.25210855    -0.06900
O320        O  0.83500893  0.39721208  0.22573706    -0.88400
H321        H  0.83289058  0.36415370  0.22715094    -0.06700
H322        H  0.88090843  0.48196772  0.21469368    -0.06900
C323        C  0.82632019  0.37600501  0.23759824     0.86700
C324        C  0.80682020  0.43668829  0.27162009     0.87200
C325        C  0.86932363  0.46219629  0.21785101     0.87300
H326        H  0.90007851  0.40516483  0.30203987    -0.06900
O327        O  0.84896517  0.39363776  0.34677365    -0.75900
Mg328      Mg  0.87233875  0.41620894  0.20463521     1.58000
H329        H  0.81305327  0.36678883  0.34370454    -0.06900
C330        C  0.75810979  0.36001393  0.22477801     0.92300
O331        O  0.81957596  0.40843021  0.15233583    -0.83100
C332        C  0.83947010  0.41639680  0.13479535     0.92300
O333        O  0.78563174  0.41977262  0.37163410    -0.83100
Mg334      Mg  0.88264924  0.43244112  0.34980164     1.58200
O335        O  0.77672763  0.37303272  0.20477610    -0.81500
O336        O  0.94054577  0.48471126  0.30965324    -0.83100
O337        O  0.81222656  0.39467316  0.79736093    -0.88700
C338        C  0.82987417  0.44583507  0.71935513     0.87300
Mg339      Mg  0.82001249  0.40568783  0.85160987     1.58100
O340        O  0.86720208  0.41827395  0.72206164    -0.88500
O341        O  0.82028839  0.37395905  0.75728767    -0.75800
C342        C  0.93859735  0.48940639  0.85622374     0.92300
O343        O  0.81469610  0.44701950  0.79965446    -0.75600
O344        O  0.91767256  0.48305129  0.86993839    -0.83100
Mg345      Mg  0.79389548  0.41008849  0.76874563     1.58000
C346        C  0.94155955  0.46088693  0.71012397     0.92300
O347        O  0.77121559  0.37363232  0.73812386    -0.81400
H348        H  0.87152894  0.38874284  0.71787011    -0.06700
C349        C  0.89786702  0.48620092  0.77245367     0.87200
O350        O  0.85450199  0.40109776  0.84791727    -0.75900
O351        O  0.82315000  0.42403380  0.72915085    -0.88600
O352        O  0.92122471  0.45695528  0.69752024    -0.81500
C353        C  0.85832830  0.43171180  0.63417127     0.92400
C354        C  0.77113827  0.36258827  0.70948701     0.92200
Mg355      Mg  0.91486160  0.44908446  0.78771639     1.58000
O356        O  0.94071681  0.48251320  0.82489857    -0.81400
O357        O  0.89366172  0.41395357  0.75427736    -0.75600
O358        O  0.83943076  0.41390173  0.64903122    -0.81500
O359        O  0.76367389  0.39711089  0.80835109    -0.83200
O360        O  0.86917993  0.44289222  0.90522144    -0.81500
C361        C  0.87733055  0.40642198  0.73041347     0.86700
O362        O  0.88506863  0.43552734  0.82644082    -0.88600
O363        O  0.89672612  0.46679068  0.76249990    -0.88700
O364        O  0.89073751  0.48821488  0.80319337    -0.75800
Mg365      Mg  0.83018047  0.39578216  0.70484544     1.58000
O366        O  0.87655337  0.44760427  0.65194395    -0.83200
H367        H  0.80906410  0.36180549  0.80750715    -0.06900
O368        O  0.84082297  0.44338117  0.83402338    -0.88400
H369        H  0.83759301  0.47370621  0.83405711    -0.06700
H370        H  0.88918457  0.40694055  0.84040239    -0.06900
C371        C  0.83132863  0.45541760  0.82335469     0.86700
C372        C  0.81338967  0.37619050  0.78825320     0.87200
C373        C  0.87695275  0.41441558  0.83840866     0.87300
H374        H  0.90415979  0.50144607  0.75410213    -0.06900
O375        O  0.85236419  0.46140883  0.71380703    -0.75900
Mg376      Mg  0.87856631  0.46293598  0.85170729     1.58000
H377        H  0.81632643  0.45170359  0.71773434    -0.06900
C378        C  0.76465075  0.40207993  0.84113562     0.92300
O379        O  0.82902434  0.41634653  0.90938477    -0.83100
C380        C  0.85012416  0.42888114  0.92356905     0.92300
O381        O  0.79003769  0.37075277  0.68927858    -0.83100
Mg382      Mg  0.88630333  0.45703414  0.70865730     1.58200
O383        O  0.78388881  0.40787124  0.85945289    -0.81500
O384        O  0.94522263  0.46206827  0.74362903    -0.83100
O385        O  0.60305952  0.18833079  0.10900233    -0.88700
C386        C  0.55685368  0.16960125  0.19490399     0.87300
Mg387      Mg  0.59095449  0.18004872  0.05539324     1.58100
O388        O  0.58524565  0.13370644  0.18562037    -0.88500
O389        O  0.62582443  0.18140774  0.14598896    -0.75800
C390        C  0.50623577  0.06083515  0.06157271     0.92300
O391        O  0.54934346  0.18266203  0.11419573    -0.75600
O392        O  0.51226304  0.08025016  0.04361490    -0.83100
Mg393      Mg  0.58689858  0.20481803  0.14139492     1.58000
C394        C  0.54461552  0.05828532  0.19318831     0.92300
O395        O  0.62396340  0.23026903  0.16777349    -0.81400
H396        H  0.61589677  0.13137937  0.18262149    -0.06700
C397        C  0.51632952  0.10424368  0.14391135     0.87200
O398        O  0.59623345  0.14609047  0.05671253    -0.75900
O399        O  0.57677662  0.17641572  0.17972797    -0.88600
O400        O  0.54948710  0.07736679  0.21169258    -0.81500
C401        C  0.57529311  0.14502415  0.27629897     0.92400
C402        C  0.63548743  0.23092443  0.19572934     0.92200
Mg403      Mg  0.55225676  0.08783106  0.11984205     1.58000
O404        O  0.51601056  0.06179715  0.09143497    -0.81400
O405        O  0.58943745  0.10940048  0.14765804    -0.75600
O406        O  0.58971269  0.16314792  0.25653226    -0.81500
O407        O  0.59612171  0.23480948  0.10215525    -0.83200
O408        O  0.55201944  0.12962101  0.00470754    -0.81500
C409        C  0.59746700  0.12490908  0.17293111     0.86700
O410        O  0.56291260  0.11653165  0.08164611    -0.88600
O411        O  0.53568826  0.10457106  0.15153867    -0.88700
O412        O  0.51269138  0.11018147  0.11324017    -0.75800
Mg413      Mg  0.60586021  0.17155550  0.19997795     1.58000
O414        O  0.56064204  0.12371268  0.26334767    -0.83200
H415        H  0.63584167  0.19259631  0.09515584    -0.06900
O416        O  0.55353344  0.15888988  0.07496632    -0.88400
H417        H  0.52249605  0.16038392  0.07986422    -0.06700
H418        H  0.58987896  0.11110702  0.06320161    -0.06900
C419        C  0.54115957  0.16719468  0.08878158     0.86700
C420        C  0.62216753  0.18795510  0.11583286     0.87200
C421        C  0.58305174  0.12383019  0.06684812     0.87300
H422        H  0.50232228  0.09931343  0.16415826    -0.06900
O423        O  0.54320202  0.14737415  0.20474257    -0.75900
Mg424      Mg  0.53382817  0.12072998  0.05989742     1.58000
H425        H  0.55053984  0.18270904  0.19887529    -0.06900
C426        C  0.59377607  0.23520414  0.06882966     0.92300
O427        O  0.57928722  0.16968329  0.99810256    -0.83100
C428        C  0.56656304  0.14793330  0.98536504     0.92300
O429        O  0.62891389  0.21184646  0.21474211    -0.83100
Mg430      Mg  0.54806724  0.11334948  0.20564708     1.58200
O431        O  0.58933536  0.21659805  0.04927427    -0.81500
O432        O  0.54234309  0.05789791  0.15972378    -0.83100
O433        O  0.61057674  0.18955716  0.60935989    -0.88700
C434        C  0.56846011  0.17183203  0.69938272     0.87300
Mg435      Mg  0.59537347  0.18072686  0.55718611     1.58100
O436        O  0.59469470  0.13420479  0.68573968    -0.88500
O437        O  0.63430047  0.18182805  0.64333940    -0.75800
C438        C  0.50916620  0.06259363  0.56840813     0.92300
O439        O  0.55770720  0.18527327  0.62103028    -0.75600
O440        O  0.51485580  0.08222903  0.55131998    -0.83100
Mg441      Mg  0.59657314  0.20680655  0.64448779     1.58000
C442        C  0.54973122  0.05717793  0.69647676     0.92300
O443        O  0.63497604  0.23157992  0.66769532    -0.81400
H444        H  0.62440665  0.13045291  0.67983063    -0.06700
C445        C  0.52410253  0.10625424  0.65141702     0.87200
O446        O  0.59984125  0.14616978  0.55671648    -0.75900
O447        O  0.58769971  0.17835095  0.68246449    -0.88600
O448        O  0.55672432  0.07672530  0.71511911    -0.81500
C449        C  0.58896250  0.14644010  0.77702903     0.92400
C450        C  0.64757901  0.23225924  0.69440951     0.92200
Mg451      Mg  0.55757643  0.08787693  0.62273174     1.58000
O452        O  0.52007212  0.06296156  0.59692603    -0.81400
O453        O  0.59601030  0.10844775  0.64746812    -0.75600
O454        O  0.60305192  0.16466158  0.75715010    -0.81500
O455        O  0.60413775  0.23689561  0.60550761    -0.83200
O456        O  0.55278756  0.13021227  0.50916287    -0.81500
C457        C  0.60571552  0.12449494  0.67186438     0.86700
O458        O  0.56760447  0.11696418  0.58447658    -0.88600
O459        O  0.54332296  0.10572464  0.65657880    -0.88700
O460        O  0.51952666  0.11266063  0.62176775    -0.75800
Mg461      Mg  0.61694832  0.17257045  0.69928986     1.58000
O462        O  0.57371396  0.12528661  0.76434817    -0.83200
H463        H  0.64227972  0.19271252  0.59201778    -0.06900
O464        O  0.55933247  0.16045866  0.58106098    -0.88400
H465        H  0.52909852  0.16303212  0.58912225    -0.06700
H466        H  0.59358682  0.11118350  0.56289210    -0.06900
C467        C  0.54803658  0.16946585  0.59624856     0.86700
C468        C  0.62960329  0.18852070  0.61398377     0.87200
C469        C  0.58704987  0.12403479  0.56772356     0.87300
H470        H  0.51113374  0.10180426  0.67305694    -0.06900
O471        O  0.55495640  0.14967708  0.70962461    -0.75900
Mg472      Mg  0.53809273  0.12236816  0.56665820     1.58000
H473        H  0.56258870  0.18516039  0.70463968    -0.06900
C474        C  0.59904517  0.23625481  0.57283877     0.92300
O475        O  0.58027587  0.16996576  0.50082426    -0.83100
C476        C  0.56613797  0.14827881  0.48864639     0.92300
O477        O  0.64163554  0.21329858  0.71345293    -0.83100
Mg478      Mg  0.55822934  0.11466476  0.70899688     1.58200
O479        O  0.59351554  0.21723720  0.55354655    -0.81500
O480        O  0.54749631  0.05736563  0.66297491    -0.83100
O481        O  0.39768677  0.81380725  0.36590691    -0.88700
C482        C  0.44350732  0.83497952  0.45101949     0.87300
Mg483      Mg  0.41004346  0.82147144  0.31207427     1.58100
O484        O  0.41355647  0.86917903  0.44023245    -0.88500
O485        O  0.37401707  0.82007459  0.40283930    -0.75800
C486        C  0.49154077  0.94086578  0.31468824     0.92300
O487        O  0.45174706  0.82086134  0.37175595    -0.75600
O488        O  0.48624466  0.92116812  0.29777512    -0.83100
Mg489      Mg  0.41394539  0.79819216  0.39894948     1.58000
C490        C  0.45268554  0.94524482  0.44615433     0.92300
O491        O  0.37628709  0.77309045  0.42513309    -0.81400
H492        H  0.38237580  0.87050953  0.43788046    -0.06700
C493        C  0.48291555  0.90040268  0.39773583     0.87200
O494        O  0.40320540  0.85441990  0.31223961    -0.75900
O495        O  0.42313107  0.82687175  0.43702493    -0.88600
O496        O  0.44841076  0.92633229  0.46424209    -0.81500
C497        C  0.42433751  0.86226890  0.53088965     0.92400
C498        C  0.36406142  0.77230573  0.45277263     0.92200
Mg499      Mg  0.44555085  0.91463476  0.37348380     1.58000
O500        O  0.48133253  0.94050219  0.34416165    -0.81400
O501        O  0.40852995  0.89265240  0.40235297    -0.75600
O502        O  0.40964400  0.84239481  0.51420071    -0.81500
O503        O  0.40618757  0.76779796  0.35981321    -0.83200
O504        O  0.44846041  0.87119125  0.26016796    -0.81500
C505        C  0.40085678  0.87732777  0.42776656     0.86700
O506        O  0.43586469  0.88518102  0.33638529    -0.88600
O507        O  0.46300226  0.89915109  0.40482174    -0.88700
O508        O  0.48706025  0.89378678  0.36773052    -0.75800
Mg509      Mg  0.39358667  0.83157241  0.45690418     1.58000
O510        O  0.43861155  0.88226272  0.51474403    -0.83200
H511        H  0.36450566  0.80816081  0.35216655    -0.06900
O512        O  0.44705677  0.84367260  0.33187232    -0.88400
H513        H  0.47862514  0.84333985  0.33727747    -0.06700
H514        H  0.40813926  0.88897852  0.31777545    -0.06900
C515        C  0.45979000  0.83609564  0.34609734     0.86700
C516        C  0.37817759  0.81352722  0.37273212     0.87200
C517        C  0.41565855  0.87691147  0.32178176     0.87300
H518        H  0.49688607  0.90656736  0.41799040    -0.06900
O519        O  0.45683380  0.85770076  0.45876687    -0.75900
Mg520      Mg  0.46579559  0.88139509  0.31530680     1.58000
H521        H  0.45055879  0.82256987  0.45553892    -0.06900
C522        C  0.40965882  0.76786185  0.32654358     0.92300
O523        O  0.42203296  0.83093585  0.25428596    -0.83100
C524        C  0.43478528  0.85247218  0.24098144     0.92300
O525        O  0.37070467  0.79106960  0.47285806    -0.83100
Mg526      Mg  0.45081399  0.89100695  0.45839822     1.58200
O527        O  0.41365443  0.78625065  0.30719851    -0.81500
O528        O  0.45481263  0.94558931  0.41257996    -0.83100
O529        O  0.38721899  0.80589798  0.86739904    -0.88700
C530        C  0.43444637  0.82692933  0.94989766     0.87300
Mg531      Mg  0.39854362  0.81294022  0.81345718     1.58100
O532        O  0.40493339  0.86158864  0.94149649    -0.88500
O533        O  0.36390589  0.81254064  0.90442528    -0.75800
C534        C  0.48130548  0.93380522  0.81129853     0.92300
O535        O  0.44161003  0.81349242  0.86995306    -0.75600
O536        O  0.47542085  0.91423242  0.79337932    -0.83100
Mg537      Mg  0.40455479  0.79077046  0.89918861     1.58000
C538        C  0.44651522  0.93831392  0.94636647     0.92300
O539        O  0.36839607  0.76525077  0.92717239    -0.81400
H540        H  0.37407179  0.86353909  0.93994788    -0.06700
C541        C  0.47365984  0.89246408  0.89483366     0.87200
O542        O  0.39190491  0.84611725  0.81357572    -0.75900
O543        O  0.41404058  0.81934711  0.93629334    -0.88600
O544        O  0.44175814  0.91961887  0.96557357    -0.81500
C545        C  0.41688063  0.85185305  0.03094660     0.92400
C546        C  0.35570382  0.76387713  0.95441414     0.92200
Mg547      Mg  0.43626803  0.90677139  0.87302905     1.58000
O548        O  0.47148222  0.93281895  0.84145853    -0.81400
O549        O  0.39988189  0.88510937  0.90363931    -0.75600
O550        O  0.40180762  0.83339377  0.01233309    -0.81500
O551        O  0.39557749  0.76010981  0.86172120    -0.83200
O552        O  0.43543027  0.86182552  0.75683695    -0.81500
C553        C  0.39236802  0.86999236  0.92932980     0.86700
O554        O  0.42535970  0.87747047  0.83508324    -0.88600
O555        O  0.45395582  0.89112709  0.90371114    -0.88700
O556        O  0.47706756  0.88646202  0.86384898    -0.75800
Mg557      Mg  0.38452563  0.82366124  0.95732465     1.58000
O558        O  0.43125703  0.87296638  0.01710623    -0.83200
H559        H  0.35391063  0.80010341  0.85410048    -0.06900
O560        O  0.43623588  0.83587836  0.83013616    -0.88400
H561        H  0.46795963  0.83576364  0.83468217    -0.06700
H562        H  0.39697330  0.88079343  0.81819780    -0.06900
C563        C  0.44924878  0.82854174  0.84406739     0.86700
C564        C  0.36773644  0.80560232  0.87446435     0.87200
C565        C  0.40465239  0.86883935  0.82193785     0.87300
H566        H  0.48823041  0.89848257  0.91412247    -0.06900
O567        O  0.44824612  0.84953137  0.95774881    -0.75900
Mg568      Mg  0.45469777  0.87364007  0.81189318     1.58000
H569        H  0.44114540  0.81416445  0.95378730    -0.06900
C570        C  0.39778250  0.75912440  0.82847296     0.92300
O571        O  0.40918932  0.82116016  0.75626561    -0.83100
C572        C  0.42110963  0.84176684  0.74030095     0.92300
O573        O  0.36109212  0.78283672  0.97348323    -0.83100
Mg574      Mg  0.44273010  0.88304585  0.95882577     1.58200
O575        O  0.40158022  0.77714545  0.80839153    -0.81500
O576        O  0.44717519  0.93742549  0.91270949    -0.83100
C577        C  0.42532316  0.86256528  0.57017280    -0.05600
C578        C  0.44166461  0.88458004  0.58809917    -0.05600
C579        C  0.44362834  0.88512129  0.62494482    -0.23700
C580        C  0.42933487  0.86365270  0.64472951     0.18500
C581        C  0.41245595  0.84155312  0.62716849     0.15700
C582        C  0.41047831  0.84114894  0.59005958    -0.18800
C583        C  0.39812542  0.82010126  0.64698544    -0.20600
C584        C  0.40089681  0.82035775  0.68368364    -0.13100
C585        C  0.41798938  0.84210023  0.70142398     0.03500
C586        C  0.43193196  0.86383508  0.68170010    -0.25300
H587        H  0.45323298  0.90147686  0.57361311     0.08600
H588        H  0.45656696  0.90226581  0.63790359     0.12200
H589        H  0.39770070  0.82410653  0.57671053     0.12100
H590        H  0.38498577  0.80302861  0.63407057     0.11900
H591        H  0.38968227  0.80336557  0.69815344     0.12400
H592        H  0.44505775  0.88076907  0.69495999     0.14400
C593        C  0.41734941  0.84822048  0.06973078    -0.05600
C594        C  0.40272574  0.82451223  0.08448409    -0.05600
C595        C  0.40312418  0.82060528  0.12081564    -0.23700
C596        C  0.41814499  0.84031423  0.14326170     0.18500
C597        C  0.43278925  0.86425556  0.12887674     0.15700
C598        C  0.43233596  0.86806755  0.09226244    -0.18800
C599        C  0.44771835  0.88398478  0.15136155    -0.20600
C600        C  0.44829184  0.88003459  0.18765422    -0.13100
C601        C  0.43396938  0.85625470  0.20230708     0.03500
C602        C  0.41881267  0.83645094  0.17980950    -0.25300
H603        H  0.39098307  0.80881404  0.06788771     0.08600
H604        H  0.39173797  0.80213479  0.13132028     0.12200
H605        H  0.44365802  0.88644002  0.08138041     0.12100
H606        H  0.45900850  0.90247930  0.14088618     0.11900
H607        H  0.46006048  0.89571428  0.20426376     0.12400
H608        H  0.40756058  0.81805557  0.19065749     0.14400
C609        C  0.54225435  0.03311372  0.71423295    -0.05600
C610        C  0.53650133  0.01196914  0.69376835    -0.05600
C611        C  0.52547956  0.98847113  0.70922954    -0.23700
C612        C  0.51967121  0.98548783  0.74550792     0.18500
C613        C  0.52640901  0.00665465  0.76673473     0.15700
C614        C  0.53790445  0.03032485  0.75110735    -0.18800
C615        C  0.52041888  0.00368111  0.80294235    -0.20600
C616        C  0.50676010  0.98000719  0.81755150    -0.13100
C617        C  0.49891567  0.95868313  0.79643806     0.03500
C618        C  0.50621209  0.96166700  0.76051394    -0.25300
H619        H  0.53972289  0.01344831  0.66539501     0.08600
H620        H  0.52063821  0.97253274  0.69251841     0.12200
H621        H  0.54211688  0.04633276  0.76732890     0.12100
H622        H  0.52553340  0.01964293  0.81973777     0.11900
H623        H  0.50168494  0.97843333  0.84534221     0.12400
H624        H  0.50037503  0.94552265  0.74381538     0.14400
C625        C  0.49107476  0.03835430  0.55326870    -0.05600
C626        C  0.48313937  0.01661683  0.57306470    -0.05600
C627        C  0.47102622  0.99349408  0.55656631    -0.23700
C628        C  0.46703820  0.99178041  0.51989877     0.18500
C629        C  0.47335686  0.01336530  0.50023375     0.15700
C630        C  0.48484691  0.03647162  0.51719779    -0.18800
C631        C  0.46979163  0.01169957  0.46346353    -0.20600
C632        C  0.46179131  0.98918554  0.44597630    -0.13100
C633        C  0.45684353  0.96788108  0.46503378     0.03500
C634        C  0.45844827  0.96912750  0.50226482    -0.25300
H635        H  0.48745625  0.01753347  0.60097967     0.08600
H636        H  0.46608304  0.97710520  0.57210427     0.12200
H637        H  0.49082149  0.05306550  0.50161473     0.12100
H638        H  0.47438458  0.02803449  0.44800894     0.11900
H639        H  0.46045583  0.98870844  0.41734169     0.12400
H640        H  0.45459338  0.95285668  0.51738397     0.14400
C641        C  0.56884477  0.14351127  0.94722098    -0.05600
C642        C  0.55459666  0.11966767  0.93271054    -0.05600
C643        C  0.55666567  0.11524440  0.89687277    -0.23700
C644        C  0.57297956  0.13459006  0.87478745     0.18500
C645        C  0.58781198  0.15850229  0.88914885     0.15700
C646        C  0.58569692  0.16281093  0.92524187    -0.14000
C647        C  0.60419042  0.17780938  0.86701362    -0.20600
C648        C  0.60514550  0.17369321  0.83072615    -0.13100
C649        C  0.58981691  0.15016921  0.81592938     0.03500
C650        C  0.57419859  0.13053402  0.83840805    -0.25300
H651        H  0.54168462  0.10435431  0.94903618     0.08600
H652        H  0.54526946  0.09676602  0.88635087     0.12200
H653        H  0.59702735  0.18120796  0.93608153     0.12100
H654        H  0.61584862  0.19621274  0.87760433     0.11900
H655        H  0.61748043  0.18912990  0.81411924     0.12400
H656        H  0.56240849  0.11224536  0.82750443     0.14400
C657        C  0.57601321  0.14925309  0.31529672    -0.05600
C658        C  0.59088496  0.17324518  0.32905322    -0.05600
C659        C  0.59186460  0.17779234  0.36547756    -0.23700
C660        C  0.57802285  0.15845070  0.38914186     0.18500
C661        C  0.56306398  0.13420943  0.37586822     0.15700
C662        C  0.56211598  0.12973406  0.33906385    -0.18800
C663        C  0.54929609  0.11488716  0.39967868    -0.20600
C664        C  0.55027017  0.11955022  0.43615441    -0.13100
C665        C  0.56504409  0.14363393  0.44972419     0.03500
C666        C  0.57893254  0.16301477  0.42584320    -0.25300
H667        H  0.60181128  0.18869636  0.31158766     0.08600
H668        H  0.60345021  0.19648111  0.37512102     0.12200
H669        H  0.55062751  0.11113262  0.32901938     0.12100
H670        H  0.53776134  0.09616670  0.39011790     0.11900
H671        H  0.53942652  0.10417427  0.45378296     0.12400
H672        H  0.59046126  0.18164999  0.43574345     0.14400
C673        C  0.50847175  0.96505174  0.29858412    -0.05600
C674        C  0.51761531  0.98683470  0.31885321    -0.05600
C675        C  0.52930453  0.00992688  0.30241666    -0.23700
C676        C  0.53157945  0.01152964  0.26541141     0.18500
C677        C  0.52375893  0.98979824  0.24504300     0.15700
C678        C  0.51270224  0.96674364  0.26182012    -0.18800
C679        C  0.52559969  0.99130350  0.20803065    -0.20600
C680        C  0.53359711  0.01390385  0.19121828    -0.13100
C681        C  0.54014030  0.03542920  0.21114667     0.03500
C682        C  0.54006048  0.03426698  0.24835258    -0.25300
H683        H  0.51477417  0.98598610  0.34730024     0.08600
H684        H  0.53538111  0.02640359  0.31846141     0.12200
H685        H  0.50567683  0.95007753  0.24590470     0.12100
H686        H  0.51980169  0.97484669  0.19203997     0.11900
H687        H  0.53371216  0.01429309  0.16250812     0.12400
H688        H  0.54517974  0.05072247  0.26405015     0.14400
C689        C  0.48886453  0.03619737  0.04653415    -0.05600
C690        C  0.47906134  0.01498487  0.06803647    -0.05600
C691        C  0.46653747  0.99134098  0.05301905    -0.23700
C692        C  0.46389399  0.98846393  0.01614942     0.18500
C693        C  0.47251079  0.00963876  0.99447545     0.15700
C694        C  0.48458559  0.03332818  0.00981813    -0.18800
C695        C  0.47015046  0.00685001  0.95761515    -0.20600
C696        C  0.46054787  0.98345900  0.94223287    -0.13100
C697        C  0.45295650  0.96230703  0.96336463     0.03500
C698        C  0.45397606  0.96491160  0.00050430    -0.25300
H699        H  0.48190609  0.01665609  0.09643851     0.08600
H700        H  0.45988391  0.97535080  0.07011073     0.12200
H701        H  0.49209341  0.04948254  0.99288864     0.12100
H702        H  0.47657857  0.02284752  0.94058759     0.11900
H703        H  0.45994788  0.98211022  0.91357450     0.12400
H704        H  0.44819559  0.94883812  0.01717738     0.14400
C705        C  0.74858923  0.33917647  0.70034259    -0.05600
C706        C  0.74416252  0.33030635  0.66530794    -0.05600
C707        C  0.72320981  0.30774713  0.65711322    -0.23700
C708        C  0.70662893  0.29342164  0.68395522     0.18500
C709        C  0.71116471  0.30193287  0.71940424     0.15700
C710        C  0.73186269  0.32489906  0.72725569    -0.18800
C711        C  0.69510197  0.28716314  0.74646073    -0.20600
C712        C  0.67469175  0.26415092  0.73844936    -0.13100
C713        C  0.66970528  0.25590355  0.70320865     0.03500
C714        C  0.68569204  0.27064825  0.67602641    -0.25300
H715        H  0.75685063  0.34089423  0.64420406     0.08600
H716        H  0.72010479  0.30138843  0.62984474     0.12200
H717        H  0.73531088  0.33132998  0.75450429     0.12100
H718        H  0.69839300  0.29335106  0.77380405     0.11900
H719        H  0.66246404  0.25302782  0.75965449     0.12400
H720        H  0.68199567  0.26418283  0.64880011     0.14400
C721        C  0.73604780  0.33756021  0.21179671    -0.05600
C722        C  0.72885594  0.33411869  0.17613062    -0.05600
C723        C  0.70710745  0.31279064  0.16572754    -0.23700
C724        C  0.69259568  0.29454014  0.19079903     0.18500
C725        C  0.70011291  0.29783867  0.22653318     0.15700
C726        C  0.72155135  0.31920038  0.23668447    -0.18800
C727        C  0.68622113  0.27966133  0.25173102    -0.20600
C728        C  0.66509641  0.25805553  0.24159855    -0.13100
C729        C  0.65728721  0.25441166  0.20621970     0.03500
C730        C  0.67095518  0.27289122  0.18089299    -0.25300
H731        H  0.73975842  0.34803746  0.15655987     0.08600
H732        H  0.70168445  0.31052957  0.13815135     0.12200
H733        H  0.72708929  0.32140099  0.26424445     0.12100
H734        H  0.69184791  0.28203491  0.27923503     0.11900
H735        H  0.65482118  0.24415405  0.26151975     0.12400
H736        H  0.66516066  0.27012459  0.15344348     0.14400
C737        C  0.86020975  0.43378332  0.59508110    -0.05600
C738        C  0.88284889  0.45102275  0.57945396    -0.05600
C739        C  0.88598509  0.45225385  0.54283761    -0.23700
C740        C  0.86648469  0.43648362  0.52093844     0.18500
C741        C  0.84340618  0.41941751  0.53606997     0.15700
C742        C  0.84044285  0.41802410  0.57312457    -0.18800
C743        C  0.82372979  0.40419580  0.51379401    -0.20600
C744        C  0.82682157  0.40625555  0.47699034    -0.13100
C745        C  0.84978184  0.42309031  0.46197444     0.03500
C746        C  0.86964233  0.43786759  0.48408941    -0.25300
H747        H  0.89848399  0.46335507  0.59558114     0.08600
H748        H  0.90371256  0.46554959  0.53165876     0.12200
H749        H  0.82289750  0.40469934  0.58477089     0.12100
H750        H  0.80588714  0.39104558  0.52478716     0.11900
H751        H  0.81124708  0.39476501  0.46018567     0.12400
H752        H  0.88726028  0.45117951  0.47256886     0.14400
C753        C  0.85265732  0.42773634  0.96246817    -0.05600
C754        C  0.87604501  0.43990350  0.97845968    -0.05600
C755        C  0.87836333  0.43976146  0.01531809    -0.23700
C756        C  0.85733009  0.42762912  0.03693630     0.18500
C757        C  0.83379777  0.41518131  0.02104026     0.15700
C758        C  0.83162446  0.41516628  0.98407042    -0.18800
C759        C  0.81270422  0.40320716  0.04237748    -0.20600
C760        C  0.81479237  0.40379489  0.07915743    -0.13100
C761        C  0.83803371  0.41622630  0.09553215     0.03500
C762        C  0.85934227  0.42794939  0.07412036    -0.25300
H763        H  0.89260720  0.44971734  0.96248838     0.08600
H764        H  0.89657512  0.44938744  0.02691414     0.12200
H765        H  0.81347658  0.40576441  0.97221767     0.12100
H766        H  0.79453612  0.39352927  0.03063810     0.11900
H767        H  0.79804267  0.39435500  0.09482099     0.12400
H768        H  0.87737211  0.43753368  0.08630652     0.14400
C769        C  0.25867569  0.66932174  0.45608644    -0.05600
C770        C  0.26572890  0.67657092  0.42077293    -0.05600
C771        C  0.28821091  0.69783809  0.41305100    -0.23700
C772        C  0.30370155  0.71246463  0.44057612     0.18500
C773        C  0.29639495  0.70565197  0.47618427     0.15700
C774        C  0.27415496  0.68398272  0.48366389    -0.18800
C775        C  0.31134421  0.72073960  0.50375931    -0.20600
C776        C  0.33336296  0.74246214  0.49616280    -0.13100
C777        C  0.34109934  0.74909885  0.46092930     0.03500
C778        C  0.32621910  0.73393050  0.43318585    -0.25300
H779        H  0.25406483  0.66553455  0.39915535     0.08600
H780        H  0.29343047  0.70289759  0.38559942     0.12200
H781        H  0.26868319  0.67872279  0.51102195     0.12100
H782        H  0.30589210  0.71586042  0.53118987     0.11900
H783        H  0.34450184  0.75397545  0.51784509     0.12400
H784        H  0.33185368  0.73920299  0.40587637     0.14400
C785        C  0.96120058  0.46580759  0.68369675    -0.05600
C786        C  0.95754424  0.46994753  0.64802650    -0.05600
C787        C  0.97630368  0.47733761  0.62289387    -0.23700
C788        C  0.99918374  0.48060927  0.63263003     0.18500
C789        C  0.00266851  0.47496235  0.66768972     0.15700
C790        C  0.98368544  0.46766770  0.69311781    -0.18800
C791        C  0.02547745  0.47778816  0.67706402    -0.20600
C792        C  0.04509309  0.48789519  0.65294891    -0.13100
C793        C  0.04238509  0.49552297  0.61893704     0.03500
C794        C  0.01897906  0.49072594  0.60842789    -0.25300
H795        H  0.94035445  0.46841655  0.63955977     0.08600
H796        H  0.97313617  0.48126780  0.59611512     0.12200
H797        H  0.98666474  0.46420585  0.72024607     0.12100
H798        H  0.02848174  0.47320740  0.70352990     0.11900
H799        H  0.06282767  0.49102560  0.66181497     0.12400
H800        H  0.01651497  0.49631801  0.58232757     0.14400
C801        C  0.95924370  0.49937319  0.36751014    -0.05600
C802        C  0.95465181  0.49978734  0.40417028    -0.05600
C803        C  0.97391440  0.51038637  0.42853133    -0.23700
C804        C  0.99838156  0.52096075  0.41697470     0.18500
C805        C  0.00339742  0.52191653  0.38014205     0.15700
C806        C  0.98384977  0.51123312  0.35559528    -0.18800
C807        C  0.02788659  0.53268180  0.36859766    -0.20600
C808        C  0.04704225  0.54136093  0.39314944    -0.13100
C809        C  0.04230744  0.53944374  0.43002255     0.03500
C810        C  0.01780069  0.52973596  0.44168211    -0.25300
H811        H  0.93595850  0.49106444  0.41437798     0.08600
H812        H  0.96960120  0.50963041  0.45653709     0.12200
H813        H  0.98778347  0.51107281  0.32758909     0.12100
H814        H  0.03222483  0.53379961  0.34056196     0.11900
H815        H  0.06565292  0.54887657  0.38302493     0.12400
H816        H  0.01373075  0.52812784  0.46984372     0.14400
C817        C  0.33404956  0.73950702  0.96317804    -0.05600
C818        C  0.32291832  0.73480135  0.99687412    -0.05600
C819        C  0.30234660  0.71176835  0.00458868    -0.23700
C820        C  0.29225643  0.69322359  0.97851788     0.18500
C821        C  0.30307637  0.69786695  0.94437146     0.15700
C822        C  0.32405202  0.72078076  0.93711923    -0.18800
C823        C  0.29242839  0.67969586  0.91784232    -0.20600
C824        C  0.27096326  0.65726818  0.92492228    -0.13100
C825        C  0.26034807  0.65239657  0.95890427     0.03500
C826        C  0.27123916  0.67030555  0.98574598    -0.25300
H827        H  0.33021654  0.74887849  0.01733250     0.08600
H828        H  0.29414866  0.70855856  0.03083196     0.12200
H829        H  0.33223513  0.72421927  0.91082690     0.12100
H830        H  0.30044278  0.68301244  0.89146585     0.11900
H831        H  0.26271752  0.64364633  0.90397818     0.12400
H832        H  0.26280677  0.66669531  0.01188819     0.14400
C833        C  0.03995044  0.48821145  0.12145798    -0.05600
C834        C  0.04036379  0.48053851  0.15641660    -0.05600
C835        C  0.01936353  0.47095710  0.17816653    -0.23700
C836        C  0.99734698  0.46866934  0.16548900     0.18500
C837        C  0.99626569  0.47497564  0.12982713     0.15700
C838        C  0.01748212  0.48466708  0.10809263    -0.18800
C839        C  0.97414111  0.47217334  0.11677859    -0.20600
C840        C  0.95346620  0.46364193  0.13888768    -0.13100
C841        C  0.95447834  0.45812715  0.17475304     0.03500
C842        C  0.97655682  0.46062939  0.18793901    -0.25300
H843        H  0.05727266  0.48289657  0.16760554     0.08600
H844        H  0.02055026  0.46594366  0.20522901     0.12200
H845        H  0.01670621  0.49037087  0.08127532     0.12100
H846        H  0.97287412  0.47681886  0.08953652     0.11900
H847        H  0.93671598  0.46195736  0.12809977     0.12400
H848        H  0.97749622  0.45624109  0.21543521     0.14400
C849        C  0.14596280  0.56845289  0.71149930    -0.05600
C850        C  0.12219247  0.55405785  0.72608825    -0.05600
C851        C  0.11872751  0.55070970  0.76273982    -0.23700
C852        C  0.13897565  0.56161597  0.78560861     0.18500
C853        C  0.16294617  0.57612209  0.77130623     0.15700
C854        C  0.16628966  0.57951557  0.73445414    -0.18800
C855        C  0.18321135  0.58701327  0.79410901    -0.20600
C856        C  0.17975244  0.58397023  0.83075540    -0.13100
C857        C  0.15597451  0.56987413  0.84543573     0.03500
C858        C  0.13563319  0.55846361  0.82252559    -0.25300
H859        H  0.10618153  0.54521156  0.70911872     0.08600
H860        H  0.10021700  0.53953882  0.77317110     0.12200
H861        H  0.18473831  0.59048633  0.72368236     0.12100
H862        H  0.20172385  0.59809827  0.78364114     0.11900
H863        H  0.19578415  0.59292969  0.84766985     0.12400
H864        H  0.11719100  0.54763602  0.83338252     0.14400
C865        C  0.15679543  0.57861695  0.34458424    -0.05600
C866        C  0.17980427  0.59460342  0.32890526    -0.05600
C867        C  0.18349524  0.59349173  0.29250863    -0.23700
C868        C  0.16422250  0.57642033  0.27110170     0.18500
C869        C  0.14104459  0.56023274  0.28657185     0.15700
C870        C  0.13749878  0.56138043  0.32312571    -0.18800
C871        C  0.12172073  0.54324228  0.26519646    -0.20600
C872        C  0.12524356  0.54243122  0.22872594    -0.13100
C873        C  0.14819846  0.55849043  0.21295745     0.03500
C874        C  0.16768999  0.57538549  0.23446560    -0.25300
H875        H  0.19501675  0.60800561  0.34477653     0.08600
H876        H  0.20138899  0.60603820  0.28109879     0.12200
H877        H  0.11965153  0.54890925  0.33476566     0.12100
H878        H  0.10384220  0.53067842  0.27663918     0.11900
H879        H  0.10992892  0.52918105  0.21285594     0.12400
H880        H  0.18547304  0.58792245  0.22271025     0.14400
C881        C  0.04447443  0.53573224  0.93662407    -0.05600
C882        C  0.04824035  0.53703765  0.89956630    -0.05600
C883        C  0.02870509  0.53014790  0.87616509    -0.23700
C884        C  0.00487768  0.52191234  0.88914877     0.18500
C885        C  0.00105637  0.52203814  0.92618881     0.15700
C886        C  0.02083723  0.52893583  0.94972677    -0.18800
C887        C  0.97728639  0.51425145  0.93909789    -0.20600
C888        C  0.95737204  0.50516516  0.91584894    -0.13100
C889        C  0.96065165  0.50344280  0.87907938     0.03500
C890        C  0.98470073  0.51257985  0.86582628    -0.25300
H891        H  0.06623199  0.54249687  0.88841594     0.08600
H892        H  0.03213222  0.53052958  0.84790201     0.12200
H893        H  0.01759657  0.52801806  0.97809745     0.12100
H894        H  0.97393756  0.51440210  0.96730951     0.11900
H895        H  0.93913752  0.49834361  0.92707037     0.12400
H896        H  0.98761676  0.51152315  0.83764771     0.14400
C897        C  0.39584540  0.73620552  0.81358717    -0.05600
C898        C  0.39378945  0.73171473  0.77694133    -0.05600
C899        C  0.39158302  0.70981493  0.76338299    -0.23700
C900        C  0.39166035  0.69217942  0.78623434     0.18500
C901        C  0.39380367  0.69645717  0.82310217     0.15700
C902        C  0.39571638  0.71833982  0.83654803    -0.18800
C903        C  0.39430249  0.67891458  0.84579197    -0.20600
C904        C  0.39314429  0.65747379  0.83190507    -0.13100
C905        C  0.39109079  0.65311603  0.79519704     0.03500
C906        C  0.39005530  0.67052862  0.77265353    -0.25300
H907        H  0.39371603  0.74504571  0.75877370     0.08600
H908        H  0.38998457  0.70674150  0.73499158     0.12200
H909        H  0.39737195  0.72153005  0.86492358     0.12100
H910        H  0.39594642  0.68195196  0.87418767     0.11900
H911        H  0.39400049  0.64442134  0.84979180     0.12400
H912        H  0.38866942  0.66763480  0.74421086     0.14400
C913        C  0.33279873  0.59258982  0.63240758    -0.05600
C914        C  0.33014517  0.59283037  0.59550945    -0.05600
C915        C  0.31149753  0.59594814  0.58106480    -0.23700
C916        C  0.29481026  0.59840505  0.60325159     0.18500
C917        C  0.29697372  0.59792968  0.64045129     0.15700
C918        C  0.31625894  0.59539656  0.65488704    -0.18800
C919        C  0.27958074  0.59962664  0.66233044    -0.20600
C920        C  0.26013606  0.60150849  0.64739674    -0.13100
C921        C  0.25811016  0.60224378  0.61039292     0.03500
C922        C  0.27573509  0.60088791  0.58861288    -0.25300
H923        H  0.34275315  0.59089838  0.57770801     0.08600
H924        H  0.30999281  0.59620523  0.55248703     0.12200
H925        H  0.31807422  0.59506128  0.68340365     0.12100
H926        H  0.28081928  0.59915576  0.69091749     0.11900
H927        H  0.24671556  0.60238392  0.66473189     0.12400
H928        H  0.27424344  0.60102568  0.56000497     0.14400
C929        C  0.40887882  0.74578404  0.31024394    -0.05600
C930        C  0.40594111  0.74164603  0.27348303    -0.05600
C931        C  0.40426213  0.72028447  0.25850796    -0.23700
C932        C  0.40574808  0.70279603  0.27998109     0.18500
C933        C  0.40916866  0.70699407  0.31686406     0.15700
C934        C  0.41062071  0.72834832  0.33173052    -0.18800
C935        C  0.41106599  0.68975446  0.33830218    -0.20600
C936        C  0.40962756  0.66853015  0.32335439    -0.13100
C937        C  0.40609913  0.66402700  0.28669600     0.03500
C938        C  0.40406018  0.68129213  0.26518062    -0.25300
H939        H  0.40453966  0.75473960  0.25634828     0.08600
H940        H  0.40175076  0.71742166  0.23013725     0.12200
H941        H  0.41315319  0.73138982  0.36008811     0.12100
H942        H  0.41379268  0.69274497  0.36662956     0.11900
H943        H  0.41141125  0.65568692  0.34054352     0.12400
H944        H  0.40159307  0.67825782  0.23682033     0.14400
C945        C  0.34323381  0.58976533  0.12828994    -0.05600
C946        C  0.33937311  0.58858204  0.09155566    -0.05600
C947        C  0.31826429  0.58754626  0.07788184    -0.23700
C948        C  0.30031626  0.58719292  0.10070410     0.18500
C949        C  0.30363676  0.58798053  0.13776408     0.15700
C950        C  0.32530114  0.58959266  0.15139674    -0.18800
C951        C  0.28513554  0.58697767  0.16030893    -0.20600
C952        C  0.26373232  0.58548155  0.14618963    -0.13100
C953        C  0.26059173  0.58521913  0.10928953     0.03500
C954        C  0.27906543  0.58597797  0.08685013    -0.25300
H955        H  0.35287720  0.58869772  0.07329390     0.08600
H956        H  0.31591082  0.58687276  0.04938916     0.12200
H957        H  0.32796198  0.59016680  0.17982011     0.12100
H958        H  0.28722200  0.58736555  0.18882729     0.11900
H959        H  0.24981222  0.58483366  0.16409250     0.12400
H960        H  0.27691444  0.58549021  0.05831637     0.14400
C961        C  0.42025610  0.57451323  0.90006631    -0.05600
C962        C  0.40367854  0.57949552  0.91887349    -0.05600
C963        C  0.40364812  0.58020154  0.95586204    -0.23700
C964        C  0.42017261  0.57589875  0.97501105     0.18500
C965        C  0.43711493  0.57109609  0.95661012     0.15700
C966        C  0.43705602  0.57039829  0.91927034    -0.18800
C967        C  0.45371280  0.56692920  0.97592825    -0.20600
C968        C  0.45306802  0.56685557  0.01302059    -0.13100
C969        C  0.43585596  0.57100171  0.03163201     0.03500
C970        C  0.41972187  0.57595008  0.01226752    -0.25300
H971        H  0.39063810  0.58294745  0.90497357     0.08600
H972        H  0.39060024  0.58400659  0.96948391     0.12200
H973        H  0.45012364  0.56680087  0.90526643     0.12100
H974        H  0.46696368  0.56339047  0.96237910     0.11900
H975        H  0.46586699  0.56315426  0.02712899     0.12400
H976        H  0.40646717  0.57935533  0.02610416     0.14400
C977        C  0.43625709  0.58612237  0.39831837    -0.05600
C978        C  0.45311638  0.57999804  0.41309205    -0.05600
C979        C  0.45347628  0.57646710  0.44950661    -0.23700
C980        C  0.43695716  0.57892307  0.47202028     0.18500
C981        C  0.42005507  0.58525704  0.45764555     0.15700
C982        C  0.41983294  0.58887431  0.42092590    -0.18800
C983        C  0.40350907  0.58765067  0.48023623    -0.20600
C984        C  0.40351010  0.58355581  0.51659482    -0.13100
C985        C  0.42009802  0.57702754  0.53118218     0.03500
C986        C  0.43692760  0.57491707  0.50861287    -0.25300
H987        H  0.46607316  0.57778880  0.39645537     0.08600
H988        H  0.46658211  0.57165374  0.46001030     0.12200
H989        H  0.40676268  0.59358830  0.40999127     0.12100
H990        H  0.39043954  0.59252192  0.46977169     0.11900
H991        H  0.39035036  0.58538677  0.53328300     0.12400
H992        H  0.44981905  0.56989882  0.51939232     0.14400
C993        C  0.59630849  0.25814755  0.05315410    -0.05600
C994        C  0.59821797  0.26193089  0.01632811    -0.05600
C995        C  0.60095255  0.28384245  0.00209862    -0.23700
C996        C  0.60160314  0.30226667  0.02442597     0.18500
C997        C  0.59963455  0.29866143  0.06145076     0.15700
C998        C  0.59713755  0.27676518  0.07553583    -0.18800
C999        C  0.59995777  0.31691659  0.08377461    -0.20600
C1000       C  0.60185122  0.33844657  0.06949328    -0.13100
C1001       C  0.60371241  0.34224503  0.03264506     0.03500
C1002       C  0.60382906  0.32406458  0.01031485    -0.25300
H1003       H  0.59776124  0.24802703  0.99852381     0.08600
H1004       H  0.60242413  0.28632164  0.97360514     0.12200
H1005       H  0.59561112  0.27417640  0.10402312     0.12100
H1006       H  0.59845498  0.31441379  0.11226739     0.11900
H1007       H  0.60168190  0.35204476  0.08730049     0.12400
H1008       H  0.60510016  0.32657093  0.98181690     0.14400
C1009       C  0.74298188  0.40219208  0.85692123    -0.05600
C1010       C  0.73820662  0.39987028  0.89355691    -0.05600
C1011       C  0.71762571  0.40049321  0.90733163    -0.23700
C1012       C  0.70189585  0.40401470  0.88471365     0.18500
C1013       C  0.70684550  0.40663668  0.84792272     0.15700
C1014       C  0.72702115  0.40538885  0.83435229    -0.18800
C1015       C  0.69182068  0.41092516  0.82516461    -0.20600
C1016       C  0.67214839  0.41295617  0.83873152    -0.13100
C1017       C  0.66680805  0.41021255  0.87517318     0.03500
C1018       C  0.68159469  0.40542750  0.89810779    -0.25300
H1019       H  0.75026153  0.39743186  0.91143546     0.08600
H1020       H  0.71419686  0.39854945  0.93564724     0.12200
H1021       H  0.73065289  0.40759119  0.80606304     0.12100
H1022       H  0.69546919  0.41301727  0.79689540     0.11900
H1023       H  0.66092562  0.41647287  0.82060985     0.12400
H1024       H  0.67770135  0.40347258  0.92632793     0.14400
C1025       C  0.54036343  0.50665447  0.88281975    -0.05600
C1026       C  0.53221220  0.51995094  0.90384317    -0.05600
C1027       C  0.52090247  0.53211599  0.88853231    -0.23700
C1028       C  0.51731548  0.53119397  0.85177447     0.18500
C1029       C  0.52621194  0.51873245  0.83014231     0.15700
C1030       C  0.53779208  0.50670099  0.84569681    -0.18800
C1031       C  0.52248685  0.51766288  0.79340802    -0.20600
C1032       C  0.50905127  0.52772207  0.77847875    -0.13100
C1033       C  0.49918484  0.53930954  0.79981741     0.03500
C1034       C  0.50409543  0.54161438  0.83649898    -0.25300
H1035       H  0.53385856  0.52033803  0.93243711     0.08600
H1036       H  0.51429945  0.54162170  0.90559110     0.12200
H1037       H  0.54386726  0.49656250  0.82899779     0.12100
H1038       H  0.52928382  0.50834758  0.77631842     0.11900
H1039       H  0.50578446  0.52577331  0.75017368     0.12400
H1040       H  0.49661960  0.55039523  0.85341593     0.14400
C1041       C  0.50232950  0.46001874  0.05305274    -0.05600
C1042       C  0.49372221  0.47314351  0.03313050    -0.05600
C1043       C  0.48204347  0.48462803  0.04968753    -0.23700
C1044       C  0.47895350  0.48342770  0.08659110     0.18500
C1045       C  0.48606270  0.46900888  0.10667728     0.15700
C1046       C  0.49740003  0.45709245  0.08973928    -0.18800
C1047       C  0.48309247  0.46799740  0.14364318    -0.20600
C1048       C  0.47476504  0.48245675  0.16070911    -0.13100
C1049       C  0.46900526  0.49799510  0.14113699     0.03500
C1050       C  0.47019611  0.49755416  0.10384863    -0.25300
H1051       H  0.49700113  0.47552073  0.00478688     0.08600
H1052       H  0.47649798  0.49539290  0.03383719     0.12200
H1053       H  0.50385060  0.44702416  0.10545092     0.12100
H1054       H  0.48820281  0.45687563  0.15946231     0.11900
H1055       H  0.47370882  0.48213286  0.18940646     0.12400
H1056       H  0.46562431  0.50921064  0.08828823     0.14400
C1057       C  0.59928510  0.33888949  0.53678446    -0.05600
C1058       C  0.59961248  0.33617856  0.57369268    -0.05600
C1059       C  0.60004192  0.31574486  0.58805576    -0.23700
C1060       C  0.59983295  0.29750362  0.56576806     0.18500
C1061       C  0.59923292  0.29990785  0.52867906     0.15700
C1062       C  0.59915485  0.32059158  0.51448763    -0.18800
C1063       C  0.59852983  0.28148444  0.50634838    -0.20600
C1064       C  0.59841566  0.26079087  0.52060972    -0.13100
C1065       C  0.59927266  0.25824355  0.55746387     0.03500
C1066       C  0.60003030  0.27681912  0.57989426    -0.25300
H1067       H  0.59966115  0.34990952  0.59144402     0.08600
H1068       H  0.60040627  0.31414162  0.61660480     0.12200
H1069       H  0.59860677  0.32220282  0.48595084     0.12100
H1070       H  0.59796632  0.28302809  0.47781342     0.11900
H1071       H  0.59779949  0.24683931  0.50275340     0.12400
H1072       H  0.60046233  0.27506862  0.60841771     0.14400
C1073       C  0.74293775  0.40652378  0.36674081    -0.05600
C1074       C  0.73904268  0.40842362  0.40309651    -0.05600
C1075       C  0.71767483  0.40812877  0.41505756    -0.23700
C1076       C  0.70008712  0.40657791  0.39079408     0.18500
C1077       C  0.70402299  0.40509952  0.35410885     0.15700
C1078       C  0.72515970  0.40460977  0.34238028    -0.18800
C1079       C  0.68696538  0.40458961  0.32974635    -0.20600
C1080       C  0.66628451  0.40567538  0.34156944    -0.13100
C1081       C  0.66190021  0.40661093  0.37798106     0.03500
C1082       C  0.67883686  0.40686700  0.40251999    -0.25300
H1083       H  0.75247825  0.40994594  0.42233101     0.08600
H1084       H  0.71506534  0.40944138  0.44325484     0.12200
H1085       H  0.72815239  0.40351053  0.31423244     0.12100
H1086       H  0.68975509  0.40362418  0.30152347     0.11900
H1087       H  0.65348361  0.40543308  0.32222366     0.12400
H1088       H  0.67578364  0.40792221  0.43065815     0.14400
C1089       C  0.56777518  0.42143608  0.64416912    -0.05600
C1090       C  0.55065459  0.42753380  0.65865105    -0.05600
C1091       C  0.55051131  0.43227171  0.69484645    -0.23700
C1092       C  0.56749888  0.43104742  0.71738389     0.18500
C1093       C  0.58492574  0.42517042  0.70311689     0.15700
C1094       C  0.58495938  0.42039381  0.66668429    -0.18800
C1095       C  0.60198110  0.42403480  0.72556867    -0.20600
C1096       C  0.60157955  0.42830511  0.76184235    -0.13100
C1097       C  0.58413290  0.43385349  0.77653765     0.03500
C1098       C  0.56722472  0.43540147  0.75395492    -0.25300
H1099       H  0.53721320  0.42859393  0.64199434     0.08600
H1100       H  0.53705237  0.43680107  0.70520452     0.12200
H1101       H  0.59834791  0.41589105  0.65592866     0.12100
H1102       H  0.61553579  0.41966627  0.71513444     0.11900
H1103       H  0.61494934  0.42708310  0.77844740     0.12400
H1104       H  0.55372878  0.43972157  0.76479942     0.14400
C1105       C  0.57226894  0.42978451  0.27813965    -0.05600
C1106       C  0.55444334  0.43369233  0.26145488    -0.05600
C1107       C  0.55276019  0.43351244  0.22457660    -0.23700
C1108       C  0.56884171  0.42939912  0.20345855     0.18500
C1109       C  0.58682607  0.42543644  0.21982692     0.15700
C1110       C  0.58845022  0.42565820  0.25700177    -0.18800
C1111       C  0.60286607  0.42126068  0.19871142    -0.20600
C1112       C  0.60095358  0.42072756  0.16183839    -0.13100
C1113       C  0.58300869  0.42444218  0.14515593     0.03500
C1114       C  0.56710559  0.42899886  0.16628158    -0.25300
H1115       H  0.54172556  0.43700843  0.27692188     0.08600
H1116       H  0.53885304  0.43658145  0.21259235     0.12200
H1117       H  0.60230626  0.42268080  0.26938590     0.12100
H1118       H  0.61680386  0.41824082  0.21069893     0.11900
H1119       H  0.61356161  0.41726004  0.14635560     0.12400
H1120       H  0.55316320  0.43184147  0.15389611     0.14400
C1121       C  0.54228870  0.50231035  0.37617983    -0.05600
C1122       C  0.54494868  0.50080795  0.33920814    -0.05600
C1123       C  0.53905322  0.51420466  0.31582667    -0.23700
C1124       C  0.53047980  0.52954810  0.32881513     0.18500
C1125       C  0.52956149  0.53280846  0.36587820     0.15700
C1126       C  0.53550676  0.51917987  0.38942815    -0.18800
C1127       C  0.52142039  0.54862426  0.37866190    -0.20600
C1128       C  0.51248807  0.55948300  0.35517883    -0.13100
C1129       C  0.51137795  0.55460501  0.31848507     0.03500
C1130       C  0.52144135  0.54046920  0.30537051    -0.25300
H1131       H  0.55062086  0.48839099  0.32802426     0.08600
H1132       H  0.54026632  0.51177746  0.28754625     0.12200
H1133       H  0.53371347  0.52082580  0.41778151     0.12100
H1134       H  0.52086640  0.55167638  0.40688593     0.11900
H1135       H  0.50493906  0.57040689  0.36610363     0.12400
H1136       H  0.52092832  0.53677759  0.27716733     0.14400
C1137       C  0.49022324  0.44903120  0.55743854    -0.05600
C1138       C  0.48066153  0.43804864  0.59069350    -0.05600
C1139       C  0.46943573  0.44742855  0.61340492    -0.23700
C1140       C  0.46760330  0.46805367  0.60341890     0.18500
C1141       C  0.47563758  0.47809055  0.56912012     0.15700
C1142       C  0.48663236  0.46843171  0.54632952    -0.18800
C1143       C  0.47369210  0.49847035  0.55867603    -0.20600
C1144       C  0.46484425  0.50948730  0.58231509    -0.13100
C1145       C  0.45778710  0.50055171  0.61718949     0.03500
C1146       C  0.45879953  0.47941004  0.62741535    -0.25300
H1147       H  0.48291145  0.42291436  0.59996782     0.08600
H1148       H  0.46309717  0.43916484  0.63931567     0.12200
H1149       H  0.49371583  0.47704953  0.52078242     0.12100
H1150       H  0.47965530  0.50635728  0.53247302     0.11900
H1151       H  0.46435390  0.52570250  0.57343853     0.12400
H1152       H  0.45329664  0.47218269  0.65403154     0.14400
loop_ 
_geom_bond_atom_site_label_1 
_geom_bond_atom_site_label_2 
_geom_bond_distance 
_geom_bond_site_symmetry_2 
_ccdc_geom_bond_type 
O1           Mg3   2.148       .  S
O1           Mg9   2.137       .  S
O1           C36   1.237       .  S
C2           O15   1.237       .  S
C2           O39   1.270       .  A
C2           H41   1.081       .  S
Mg3          O32   2.160       .  S
Mg3          O47   2.346       .  S
Mg3          O43   2.293       .  S
Mg3          O14   2.305       .  S
O4          Mg46   2.148       .  S
O4          Mg29   2.144       .  S
O4           C25   1.236       .  S
O5           C36   1.272       .  A
O5          Mg29   2.308       .  S
C6            O8   1.272       .  A
C6           O20   1.281       .  A
C6         C1137   1.490       .  S
O7           C35   1.273       .  A
O7           Mg9   2.306       .  S
O8          Mg40   2.255       .  S
Mg9          O15   2.126       .  S
Mg9          O23   2.240       .  S
Mg9          O11   2.322       .  S
C10          O48   1.277       .  A
C10          O16   1.270       .  A
C10        C1121   1.484       .  S
O11          C18   1.277       .  A
H12          C25   1.081       .  S
C13          O27   1.235       .  S
C13          O28   1.267       .  A
C13          H38   1.081       .  S
O14          C37   1.272       .  A
O15         Mg29   2.142       .  S
O16         Mg46   2.252       .  S
C17          O30   1.268       .  A
C17          O22   1.279       .  A
C17        C1105   1.484       .  S
C18          O45   1.275       .  A
C18        C1081   1.482       .  S
Mg19         O26   2.144       .  S
Mg19         O27   2.159       .  S
Mg19         O20   2.339       .  S
Mg19         O21   2.299       .  S
Mg19         O48   2.310       .  S
O21          C25   1.270       .  A
O22         Mg29   2.336       .  S
O23          C42   1.271       .  A
O24          C44   1.270       .  A
O24         Mg40   2.262       .  S
O26         Mg40   2.160       .  S
O26          C37   1.238       .  S
O27         Mg46   2.119       .  S
O28         Mg40   2.282       .  S
Mg29         O45   2.283       .  S
O30         Mg46   2.226       .  S
H31          C36   1.081       .  S
O32         Mg40   2.151       .  S
O32          C35   1.238       .  S
H33          C35   1.081       .  S
H34          C37   1.081       .  S
O39         Mg46   2.288       .  S
C42          O47   1.281       .  A
C42        C1057   1.486       .  S
O43          C44   1.276       .  A
C44        C1089   1.482       .  S
O49         Mg51   2.116   1_556  S
O49         Mg57   2.137       .  S
O49          C84   1.238       .  S
C50          O63   1.235       .  S
C50          O87   1.268       .  A
C50          H89   1.081       .  S
Mg51         O80   2.148       .  S
Mg51         O95   2.337       .  S
Mg51         O91   2.229       .  S
Mg51         O62   2.317       .  S
O52         Mg94   2.164       .  S
O52         Mg77   2.139       .  S
O52          C73   1.235       .  S
O53          C84   1.271       .  A
O53         Mg77   2.291       .  S
C54          O56   1.274       .  A
C54          O68   1.274       .  A
C54        C1041   1.485       .  S
O55          C83   1.272   1_556  A
O55         Mg57   2.303       .  S
O56         Mg88   2.281       .  S
Mg57         O63   2.124       .  S
Mg57         O71   2.244       .  S
Mg57         O59   2.293       .  S
C58          O96   1.275       .  A
C58          O64   1.280       .  A
C58        C1025   1.496       .  S
O59          C66   1.273       .  A
H60          C73   1.081       .  S
C61          O75   1.237       .  S
C61          O76   1.273       .  A
C61          H86   1.081       .  S
O62          C85   1.274       .  A
O63         Mg77   2.139       .  S
O64         Mg94   2.337       .  S
C65          O78   1.278       .  A
C65          O70   1.274       .  A
C65        C1097   1.483       .  S
C66          O93   1.274       .  A
C66        C1017   1.476       .  S
Mg67         O74   2.174   1_556  S
Mg67         O75   2.153       .  S
Mg67         O68   2.295   1_556  S
Mg67         O69   2.289       .  S
Mg67         O96   2.282       .  S
O69          C73   1.268       .  A
O70         Mg77   2.277       .  S
O71          C90   1.269   1_556  A
O72          C92   1.281       .  A
O72         Mg88   2.348       .  S
O74         Mg88   2.156       .  S
O74          C85   1.238       .  S
O75         Mg94   2.162       .  S
O76         Mg88   2.315   1_556  S
Mg77         O93   2.271       .  S
O78         Mg94   2.297       .  S
H79          C84   1.081       .  S
O80         Mg88   2.147       .  S
O80          C83   1.238       .  S
H81          C83   1.081       .  S
H82          C85   1.081       .  S
O87         Mg94   2.289       .  S
C90          O95   1.278       .  A
C90        C1001   1.487       .  S
O91          C92   1.269       .  A
C92        C1113   1.485       .  S
O97         Mg99   2.142       .  S
O97        Mg105   2.142       .  S
O97         C132   1.238       .  S
C98         O111   1.238       .  S
C98         O135   1.272       .  A
C98         H137   1.081       .  S
Mg99        O128   2.158       .  S
Mg99        O143   2.313       .  S
Mg99        O139   2.293       .  S
Mg99        O110   2.303       .  S
O100       Mg142   2.144       .  S
O100       Mg125   2.137       .  S
O100        C121   1.235       .  S
O101        C132   1.273       .  A
O101       Mg125   2.308       .  S
C102        O104   1.267       .  A
C102        O116   1.279       .  A
C102       C1129   1.481       .  S
O103        C131   1.272       .  A
O103       Mg105   2.303       .  S
O104       Mg136   2.225       .  S
Mg105       O111   2.142       .  S
Mg105       O119   2.261       .  S
Mg105       O107   2.325       .  S
C106        O144   1.276       .  A
C106        O112   1.277       .  A
C106       C1049   1.486       .  S
O107        C114   1.276       .  A
H108        C121   1.081       .  S
C109        O123   1.235       .  S
C109        O124   1.268       .  A
C109        H134   1.081       .  S
O110        C133   1.271       .  A
O111       Mg125   2.135       .  S
O112       Mg142   2.309       .  S
C113        O126   1.273       .  A
C113        O118   1.279       .  A
C113        C969   1.487       .  S
C114        O141   1.274       .  A
C114        C945   1.482       .  S
Mg115       O122   2.145       .  S
Mg115       O123   2.154       .  S
Mg115       O116   2.333       .  S
Mg115       O117   2.294       .  S
Mg115       O144   2.277       .  S
O117        C121   1.269       .  A
O118       Mg125   2.328       .  S
O119        C138   1.273       .  A
O120        C140   1.269       .  A
O120       Mg136   2.260       .  S
O122       Mg136   2.157       .  S
O122        C133   1.237       .  S
O123       Mg142   2.131       .  S
O124       Mg136   2.287       .  S
Mg125       O141   2.272       .  S
O126       Mg142   2.260       .  S
H127        C132   1.081       .  S
O128       Mg136   2.131       .  S
O128        C131   1.237       .  S
H129        C131   1.081       .  S
H130        C133   1.081       .  S
O135       Mg142   2.299       .  S
C138        O143   1.277       .  A
C138        C937   1.484       .  S
O139        C140   1.274       .  A
C140        C977   1.483       .  S
O145       Mg147   2.138       .  S
O145       Mg153   2.132       .  S
O145        C180   1.237       .  S
C146        O159   1.235       .  S
C146        O183   1.267       .  A
C146        H185   1.081       .  S
Mg147       O176   2.149       .  S
Mg147       O191   2.357       .  S
Mg147       O187   2.243       .  S
Mg147       O158   2.319       .  S
O148       Mg190   2.157       .  S
O148       Mg173   2.129       .  S
O148        C169   1.236       .  S
O149        C180   1.271       .  A
O149       Mg173   2.301       .  S
C150        O152   1.277       .  A
C150        O164   1.280       .  A
C150       C1033   1.493       .  S
O151        C179   1.273       .  A
O151       Mg153   2.316       .  S
O152       Mg184   2.298       .  S
Mg153       O159   2.105       .  S
Mg153       O167   2.206       .  S
Mg153       O155   2.312       .  S
C154        O192   1.280       .  A
C154        O160   1.273       .  A
C154       C1145   1.490       .  S
O155        C162   1.274       .  A
H156        C169   1.081       .  S
C157        O171   1.235       .  S
C157        O172   1.269       .  A
C157        H182   1.081       .  S
O158        C181   1.275       .  A
O159       Mg173   2.134       .  S
O160       Mg190   2.266       .  S
C161        O174   1.274       .  A
C161        O166   1.273       .  A
C161        C985   1.483       .  S
C162        O189   1.271       .  A
C162        C913   1.478       .  S
Mg163       O170   2.184       .  S
Mg163       O171   2.162       .  S
Mg163       O164   2.324       .  S
Mg163       O165   2.291       .  S
Mg163       O192   2.331       .  S
O165        C169   1.269       .  A
O166       Mg173   2.280       .  S
O167        C186   1.265       .  A
O168        C188   1.279       .  A
O168       Mg184   2.339       .  S
O170       Mg184   2.167       .  S
O170        C181   1.239       .  S
O171       Mg190   2.145       .  S
O172       Mg184   2.297       .  S
Mg173       O189   2.255       .  S
O174       Mg190   2.282       .  S
H175        C180   1.081       .  S
O176       Mg184   2.171       .  S
O176        C179   1.237       .  S
H177        C179   1.081       .  S
H178        C181   1.081       .  S
O183       Mg190   2.281       .  S
C186        O191   1.280       .  A
C186        C905   1.483       .  S
O187        C188   1.271       .  A
C188        C961   1.487       .  S
O193       Mg195   2.126       .  S
O193       Mg201   2.130       .  S
O193        C228   1.237       .  S
C194        O207   1.237       .  S
C194        O231   1.269       .  A
C194        H233   1.081       .  S
Mg195       O224   2.160       .  S
Mg195       O239   2.358       .  S
Mg195       O235   2.255       .  S
Mg195       O206   2.317       .  S
O196       Mg238   2.149       .  S
O196       Mg221   2.135       .  S
O196        C217   1.235       .  S
O197        C228   1.271       .  A
O197       Mg221   2.300   1_554  S
C198        O200   1.273       .  A
C198        O212   1.281       .  A
C198        C833   1.494       .  S
O199        C227   1.273       .  A
O199       Mg201   2.308       .  S
O200       Mg232   2.263       .  S
Mg201       O207   2.118   1_554  S
Mg201       O215   2.227       .  S
Mg201       O203   2.299   1_554  S
C202        O240   1.280       .  A
C202        O208   1.274       .  A
C202        C881   1.491       .  S
O203        C210   1.273       .  A
H204        C217   1.081       .  S
C205        O219   1.236       .  S
C205        O220   1.270       .  A
C205        H230   1.081   1_554  S
O206        C229   1.273       .  A
O207       Mg221   2.138       .  S
O208       Mg238   2.276       .  S
C209        O222   1.275       .  A
C209        O214   1.275       .  A
C209        C857   1.485       .  S
C210        O237   1.272       .  A
C210        C825   1.472       .  S
Mg211       O218   2.174       .  S
Mg211       O219   2.168       .  S
Mg211       O212   2.347       .  S
Mg211       O213   2.292       .  S
Mg211       O240   2.323   1_554  S
O213        C217   1.268   1_554  A
O214       Mg221   2.291       .  S
O215        C234   1.269       .  A
O216        C236   1.275       .  A
O216       Mg232   2.301       .  S
O218       Mg232   2.159       .  S
O218        C229   1.237       .  S
O219       Mg238   2.154   1_554  S
O220       Mg232   2.297       .  S
Mg221       O237   2.277       .  S
O222       Mg238   2.286       .  S
H223        C228   1.081       .  S
O224       Mg232   2.160       .  S
O224        C227   1.238       .  S
H225        C227   1.081       .  S
H226        C229   1.081       .  S
O231       Mg238   2.288       .  S
C234        O239   1.280       .  A
C234        C953   1.489       .  S
O235        C236   1.272       .  A
C236        C873   1.481       .  S
O241       Mg243   2.136       .  S
O241       Mg249   2.141       .  S
O241        C276   1.238       .  S
C242        O255   1.236       .  S
C242        O279   1.269       .  A
C242        H281   1.081       .  S
Mg243       O272   2.143       .  S
Mg243       O287   2.333       .  S
Mg243       O283   2.270       .  S
Mg243       O254   2.321       .  S
O244       Mg286   2.150       .  S
O244       Mg269   2.143       .  S
O244        C265   1.235       .  S
O245        C276   1.273       .  A
O245       Mg269   2.305       .  S
C246        O248   1.267       .  A
C246        O260   1.283       .  A
C246        C793   1.484       .  S
O247        C275   1.270       .  A
O247       Mg249   2.300       .  S
O248       Mg280   2.206       .  S
Mg249       O255   2.113       .  S
Mg249       O263   2.231       .  S
Mg249       O251   2.286       .  S
C250        O288   1.283       .  A
C250        O256   1.274       .  A
C250        C809   1.495       .  S
O251        C258   1.273       .  A
H252        C265   1.081       .  S
C253        O267   1.234       .  S
C253        O268   1.267       .  A
C253        H278   1.081       .  S
O254        C277   1.275       .  A
O255       Mg269   2.139       .  S
O256       Mg286   2.278       .  S
C257        O270   1.272       .  A
C257        O262   1.276       .  A
C257        C865   1.481       .  S
C258        O285   1.274       .  A
C258        C769   1.478       .  S
Mg259       O266   2.185       .  S
Mg259       O267   2.157       .  S
Mg259       O260   2.356       .  S
Mg259       O261   2.299       .  S
Mg259       O288   2.340       .  S
O261        C265   1.270       .  A
O262       Mg269   2.301       .  S
O263        C282   1.269       .  A
O264        C284   1.273       .  A
O264       Mg280   2.301       .  S
O266       Mg280   2.168       .  S
O266        C277   1.239       .  S
O267       Mg286   2.135       .  S
O268       Mg280   2.288       .  S
Mg269       O285   2.286       .  S
O270       Mg286   2.257       .  S
H271        C276   1.081       .  S
O272       Mg280   2.130       .  S
O272        C275   1.236       .  S
H273        C275   1.081       .  S
H274        C277   1.081       .  S
O279       Mg286   2.284       .  S
C282        O287   1.277       .  A
C282        C921   1.482       .  S
O283        C284   1.271       .  A
C284        C849   1.485       .  S
O289       Mg291   2.127       .  S
O289       Mg297   2.131       .  S
O289        C324   1.239       .  S
C290        O327   1.266       .  A
C290        H329   1.081       .  S
C290        O303   1.264       .  A
Mg291       O320   2.145       .  S
Mg291       O335   2.359       .  S
Mg291       O331   2.231       .  S
Mg291       O302   2.329       .  S
O292       Mg334   2.162       .  S
O292       Mg317   2.134       .  S
O292        C313   1.235       .  S
O293        C324   1.272       .  A
O293       Mg317   2.300       .  S
C294        O296   1.273       .  A
C294        O308   1.284       .  A
C294        C841   1.487       .  S
O295        C323   1.274       .  A
O295       Mg297   2.321       .  S
O296       Mg328   2.258       .  S
Mg297       O311   2.187       .  S
Mg297       O299   2.313       .  S
Mg297       O303   2.153       .  S
C298        O336   1.283       .  A
C298        O304   1.272       .  A
C298        C801   1.493       .  S
O299        C306   1.275       .  A
H300        C313   1.081       .  S
C301        O315   1.234       .  S
C301        O316   1.270       .  A
C301        H326   1.081       .  S
O302        C325   1.276       .  A
O303       Mg317   2.196       .  S
O304       Mg334   2.263       .  S
C305        O318   1.275       .  A
C305        O310   1.270       .  A
C305        C745   1.469       .  S
C306        O333   1.273       .  A
C306       C1073   1.483       .  S
Mg307       O314   2.199       .  S
Mg307       O315   2.159       .  S
Mg307       O308   2.370       .  S
Mg307       O309   2.296       .  S
Mg307       O336   2.349       .  S
O309        C313   1.269       .  A
O310       Mg317   2.264       .  S
O311        C330   1.264       .  A
O312        C332   1.277       .  A
O312       Mg328   2.336       .  S
O314       Mg328   2.158       .  S
O314        C325   1.239       .  S
O315       Mg334   2.159       .  S
O316       Mg328   2.302       .  S
Mg317       O333   2.280       .  S
O318       Mg334   2.283       .  S
H319        C324   1.081       .  S
O320       Mg328   2.172       .  S
O320        C323   1.238       .  S
H321        C323   1.081       .  S
H322        C325   1.081       .  S
O327       Mg334   2.286       .  S
C330        O335   1.279       .  A
C330        C721   1.477       .  S
O331        C332   1.268       .  A
C332        C761   1.484       .  S
O337       Mg339   2.136       .  S
O337       Mg345   2.133       .  S
O337        C372   1.238       .  S
C338        O375   1.266       .  A
C338        H377   1.082       .  S
C338        O351   1.264       .  A
Mg339       O368   2.148       .  S
Mg339       O383   2.350       .  S
Mg339       O379   2.266       .  S
Mg339       O350   2.320       .  S
O340       Mg382   2.157       .  S
O340       Mg365   2.129       .  S
O340        C361   1.235       .  S
O341        C372   1.273       .  A
O341       Mg365   2.307       .  S
C342        O344   1.270       .  A
C342        O356   1.283       .  A
C342        C889   1.490       .  S
O343        C371   1.274       .  A
O343       Mg345   2.315       .  S
O344       Mg376   2.235       .  S
Mg345       O359   2.215       .  S
Mg345       O347   2.301       .  S
Mg345       O351   2.173       .  S
C346        O384   1.281       .  A
C346        O352   1.267       .  A
C346        C785   1.485       .  S
O347        C354   1.276       .  A
H348        C361   1.081       .  S
C349        O363   1.234       .  S
C349        O364   1.267       .  A
C349        H374   1.081       .  S
O350        C373   1.274       .  A
O351       Mg365   2.212       .  S
O352       Mg382   2.226       .  S
C353        O366   1.269       .  A
C353        O358   1.278       .  A
C353        C737   1.479       .  S
C354        O381   1.276       .  A
C354        C705   1.480       .  S
Mg355       O362   2.173       .  S
Mg355       O363   2.169       .  S
Mg355       O356   2.360       .  S
Mg355       O357   2.290       .  S
Mg355       O384   2.337       .  S
O357        C361   1.268       .  A
O358       Mg365   2.324       .  S
O359        C378   1.267       .  A
O360        C380   1.272       .  A
O360       Mg376   2.294       .  S
O362       Mg376   2.161       .  S
O362        C373   1.238       .  S
O363       Mg382   2.129       .  S
O364       Mg376   2.287       .  S
Mg365       O381   2.280       .  S
O366       Mg382   2.223       .  S
H367        C372   1.081       .  S
O368       Mg376   2.158       .  S
O368        C371   1.239       .  S
H369        C371   1.081       .  S
H370        C373   1.081       .  S
O375       Mg382   2.281       .  S
C378        O383   1.279       .  A
C378       C1009   1.481       .  S
O379        C380   1.272       .  A
C380        C753   1.483       .  S
O385       Mg387   2.134       .  S
O385       Mg393   2.140       .  S
O385        C420   1.238       .  S
C386        O399   1.235       .  S
C386        O423   1.269       .  A
C386        H425   1.081       .  S
Mg387       O416   2.162       .  S
Mg387       O431   2.347       .  S
Mg387       O427   2.271   1_554  S
Mg387       O398   2.304       .  S
O388       Mg430   2.152       .  S
O388       Mg413   2.119       .  S
O388        C409   1.236       .  S
O389        C420   1.272       .  A
O389       Mg413   2.300       .  S
C390        O392   1.272       .  A
C390        O404   1.273       .  A
C390        C689   1.483       .  S
O391        C419   1.271       .  A
O391       Mg393   2.296       .  S
O392       Mg424   2.274       .  S
Mg393       O399   2.128       .  S
Mg393       O407   2.229       .  S
Mg393       O395   2.289       .  S
C394        O432   1.270       .  A
C394        O400   1.276       .  A
C394        C681   1.477       .  S
O395        C402   1.272       .  A
H396        C409   1.081       .  S
C397        O411   1.239       .  S
C397        O412   1.274       .  A
C397        H422   1.081       .  S
O398        C421   1.270       .  A
O399       Mg413   2.138       .  S
O400       Mg430   2.304       .  S
C401        O414   1.277       .  A
C401        O406   1.277       .  A
C401        C657   1.490       .  S
C402        O429   1.272       .  A
C402        C729   1.474       .  S
Mg403       O410   2.134       .  S
Mg403       O411   2.155       .  S
Mg403       O404   2.297       .  S
Mg403       O405   2.287       .  S
Mg403       O432   2.236       .  S
O405        C409   1.268       .  A
O406       Mg413   2.301       .  S
O407        C426   1.269       .  A
O408        C428   1.276   1_554  A
O408       Mg424   2.298       .  S
O410       Mg424   2.137       .  S
O410        C421   1.236       .  S
O411       Mg430   2.158       .  S
O412       Mg424   2.309       .  S
Mg413       O429   2.255       .  S
O414       Mg430   2.297       .  S
H415        C420   1.081       .  S
O416       Mg424   2.139       .  S
O416        C419   1.238       .  S
H417        C419   1.081       .  S
H418        C421   1.081       .  S
O423       Mg430   2.292       .  S
C426        O431   1.281       .  A
C426        C993   1.486       .  S
O427        C428   1.275       .  A
C428        C641   1.482       .  S
O433       Mg435   2.139       .  S
O433       Mg441   2.142       .  S
O433        C468   1.239       .  S
C434        O447   1.235       .  S
C434        O471   1.269       .  A
C434        H473   1.081       .  S
Mg435       O464   2.152       .  S
Mg435       O479   2.344       .  S
Mg435       O475   2.290       .  S
Mg435       O446   2.309       .  S
O436       Mg478   2.161       .  S
O436       Mg461   2.145       .  S
O436        C457   1.235       .  S
O437        C468   1.273       .  A
O437       Mg461   2.306       .  S
C438        O440   1.271       .  A
C438        O452   1.273       .  A
C438        C625   1.479       .  S
O439        C467   1.271       .  A
O439       Mg441   2.295       .  S
O440       Mg472   2.254       .  S
Mg441       O447   2.133       .  S
Mg441       O455   2.247       .  S
Mg441       O443   2.290       .  S
C442        O480   1.273       .  A
C442        O448   1.279       .  A
C442        C609   1.493       .  S
O443        C450   1.273       .  A
H444        C457   1.081       .  S
C445        O459   1.238       .  S
C445        O460   1.272       .  A
C445        H470   1.081       .  S
O446        C469   1.272       .  A
O447       Mg461   2.138       .  S
O448       Mg478   2.335       .  S
C449        O462   1.274       .  A
C449        O454   1.277       .  A
C449        C649   1.481       .  S
C450        O477   1.273       .  A
C450        C713   1.472       .  S
Mg451       O458   2.157       .  S
Mg451       O459   2.150       .  S
Mg451       O452   2.292       .  S
Mg451       O453   2.291       .  S
Mg451       O480   2.269       .  S
O453        C457   1.268       .  A
O454       Mg461   2.305       .  S
O455        C474   1.271       .  A
O456        C476   1.276       .  A
O456       Mg472   2.306       .  S
O458       Mg472   2.152       .  S
O458        C469   1.237       .  S
O459       Mg478   2.142       .  S
O460       Mg472   2.304       .  S
Mg461       O477   2.282       .  S
O462       Mg478   2.261       .  S
H463        C468   1.081       .  S
O464       Mg472   2.134       .  S
O464        C467   1.237       .  S
H465        C467   1.081       .  S
H466        C469   1.081       .  S
O471       Mg478   2.295       .  S
C474        O479   1.281       .  A
C474       C1065   1.487       .  S
O475        C476   1.276       .  A
C476        C665   1.490       .  S
O481       Mg483   2.137       .  S
O481       Mg489   2.138       .  S
O481        C516   1.238       .  S
C482        O495   1.236       .  S
C482        O519   1.269       .  A
C482        H521   1.081       .  S
Mg483       O512   2.159       .  S
Mg483       O527   2.326       .  S
Mg483       O523   2.282       .  S
Mg483       O494   2.301       .  S
O484       Mg526   2.147       .  S
O484       Mg509   2.131       .  S
O484        C505   1.235       .  S
O485        C516   1.273       .  A
O485       Mg509   2.307       .  S
C486        O488   1.271       .  A
C486        O500   1.272       .  A
C486        C673   1.474       .  S
O487        C515   1.273       .  A
O487       Mg489   2.300       .  S
O488       Mg520   2.252       .  S
Mg489       O495   2.133       .  S
Mg489       O503   2.251       .  S
Mg489       O491   2.298       .  S
C490        O528   1.271       .  A
C490        O496   1.274       .  A
C490        C633   1.481       .  S
O491        C498   1.275       .  A
H492        C505   1.081       .  S
C493        O507   1.237       .  S
C493        O508   1.271       .  A
C493        H518   1.081       .  S
O494        C517   1.270       .  A
O495       Mg509   2.142       .  S
O496       Mg526   2.293       .  S
C497        O510   1.270       .  A
C497        O502   1.281       .  A
C497        C577   1.483       .  S
C498        O525   1.275       .  A
C498        C777   1.476       .  S
Mg499       O506   2.138       .  S
Mg499       O507   2.149       .  S
Mg499       O500   2.284       .  S
Mg499       O501   2.289       .  S
Mg499       O528   2.259       .  S
O501        C505   1.269       .  A
O502       Mg509   2.341       .  S
O503        C522   1.271       .  A
O504        C524   1.274       .  A
O504       Mg520   2.289       .  S
O506       Mg520   2.149       .  S
O506        C517   1.236       .  S
O507       Mg526   2.127       .  S
O508       Mg520   2.298       .  S
Mg509       O525   2.279       .  S
O510       Mg526   2.229       .  S
H511        C516   1.081       .  S
O512       Mg520   2.135       .  S
O512        C515   1.239       .  S
H513        C515   1.081       .  S
H514        C517   1.081       .  S
O519       Mg526   2.291       .  S
C522        O527   1.278       .  A
C522        C929   1.484       .  S
O523        C524   1.275       .  A
C524        C601   1.485       .  S
O529       Mg531   2.124       .  S
O529       Mg537   2.138       .  S
O529        C564   1.238       .  S
C530        O543   1.235       .  S
C530        O567   1.267       .  A
C530        H569   1.081       .  S
Mg531       O560   2.158       .  S
Mg531       O575   2.342       .  S
Mg531       O571   2.238       .  S
Mg531       O542   2.307       .  S
O532       Mg574   2.162       .  S
O532       Mg557   2.139       .  S
O532        C553   1.236       .  S
O533        C564   1.271       .  A
O533       Mg557   2.294       .  S
C534        O536   1.276       .  A
C534        O548   1.276       .  A
C534        C617   1.494       .  S
O535        C563   1.272       .  A
O535       Mg537   2.302       .  S
O536       Mg568   2.305       .  S
Mg537       O543   2.101       .  S
Mg537       O551   2.209       .  S
Mg537       O539   2.271       .  S
C538        O576   1.271       .  A
C538        O544   1.279       .  A
C538        C697   1.485       .  S
O539        C546   1.270       .  A
H540        C553   1.081       .  S
C541        O555   1.238       .  S
C541        O556   1.273       .  A
C541        H566   1.081       .  S
O542        C565   1.271       .  A
O543       Mg557   2.142       .  S
O544       Mg574   2.326       .  S
C545        O558   1.279       .  A
C545        O550   1.275       .  A
C545        C593   1.485       .  S
C546        O573   1.275       .  A
C546        C817   1.483       .  S
Mg547       O554   2.143       .  S
Mg547       O555   2.154       .  S
Mg547       O548   2.307       .  S
Mg547       O549   2.291       .  S
Mg547       O576   2.245       .  S
O549        C553   1.269       .  A
O550       Mg557   2.283   1_554  S
O551        C570   1.265       .  A
O552        C572   1.280       .  A
O552       Mg568   2.334       .  S
O554       Mg568   2.146       .  S
O554        C565   1.236       .  S
O555       Mg574   2.169       .  S
O556       Mg568   2.313       .  S
Mg557       O573   2.299       .  S
O558       Mg574   2.298   1_554  S
H559        C564   1.081       .  S
O560       Mg568   2.156       .  S
O560        C563   1.238       .  S
H561        C563   1.081       .  S
H562        C565   1.081       .  S
O567       Mg574   2.284       .  S
C570        O575   1.279       .  A
C570        C897   1.481       .  S
O571        C572   1.272       .  A
C572        C585   1.483       .  S
C577        C578   1.410       .  A
C577        C582   1.405       .  A
C578        H587   1.083       .  S
C578        C579   1.395       .  A
C579        H588   1.084       .  S
C579        C580   1.399       .  A
C580        C586   1.405       .  A
C580        C581   1.415       .  A
C581        C583   1.399       .  A
C581        C582   1.405       .  A
C582        H589   1.084       .  S
C583        H590   1.084       .  S
C583        C584   1.395       .  A
C584        H591   1.083       .  S
C584        C585   1.409       .  A
C585        C586   1.405       .  A
C586        H592   1.084       .  S
C593        C594   1.409       .  A
C593        C598   1.406       .  A
C594        H603   1.083       .  S
C594        C595   1.396       .  A
C595        H604   1.084       .  S
C595        C596   1.400       .  A
C596        C602   1.405       .  A
C596        C597   1.415       .  A
C597        C599   1.400       .  A
C597        C598   1.406       .  A
C598        H605   1.084       .  S
C599        H606   1.084       .  S
C599        C600   1.396       .  A
C600        H607   1.083       .  S
C600        C601   1.409       .  A
C601        C602   1.406       .  A
C602        H608   1.084       .  S
C609        C610   1.409       .  A
C609        C614   1.410       .  A
C610        H619   1.083       .  S
C610        C611   1.400   1_545  A
C611        H620   1.083       .  S
C611        C612   1.402       .  A
C612        C618   1.411       .  A
C612        C613   1.414   1_565  A
C613        C615   1.402       .  A
C613        C614   1.411       .  A
C614        H621   1.083       .  S
C615        H622   1.083       .  S
C615        C616   1.399   1_545  A
C616        H623   1.083       .  S
C616        C617   1.410       .  A
C617        C618   1.410       .  A
C618        H624   1.083       .  S
C625        C626   1.406       .  A
C625        C630   1.406       .  A
C626        H635   1.083       .  S
C626        C627   1.396   1_545  A
C627        H636   1.083       .  S
C627        C628   1.401       .  A
C628        C634   1.402       .  A
C628        C629   1.413   1_565  A
C629        C631   1.402       .  A
C629        C630   1.402       .  A
C630        H637   1.084       .  S
C631        H638   1.083       .  S
C631        C632   1.397   1_545  A
C632        H639   1.083       .  S
C632        C633   1.406       .  A
C633        C634   1.408       .  A
C634        H640   1.084       .  S
C641        C642   1.408       .  A
C641        C646   1.407       .  A
C642        H651   1.083       .  S
C642        C643   1.396       .  A
C643        H652   1.083       .  S
C643        C644   1.401       .  A
C644        C650   1.402       .  A
C644        C645   1.413       .  A
C645        C647   1.402       .  A
C645        C646   1.404       .  A
C646        H653   1.084       .  S
C647        H654   1.083       .  S
C647        C648   1.397       .  A
C648        H655   1.083       .  S
C648        C649   1.407       .  A
C649        C650   1.407       .  A
C650        H656   1.084       .  S
C657        C658   1.409       .  A
C657        C662   1.409       .  A
C658        H667   1.083       .  S
C658        C659   1.397       .  A
C659        H668   1.083       .  S
C659        C660   1.400       .  A
C660        C666   1.407       .  A
C660        C661   1.414       .  A
C661        C663   1.402       .  A
C661        C662   1.410       .  A
C662        H669   1.083       .  S
C663        H670   1.083       .  S
C663        C664   1.400       .  A
C664        H671   1.083       .  S
C664        C665   1.409       .  A
C665        C666   1.407       .  A
C666        H672   1.083       .  S
C673        C674   1.406       .  A
C673        C678   1.404       .  A
C674        H683   1.083       .  S
C674        C675   1.395   1_565  A
C675        H684   1.083       .  S
C675        C676   1.401       .  A
C676        C682   1.401       .  A
C676        C677   1.414   1_545  A
C677        C679   1.400       .  A
C677        C678   1.400       .  A
C678        H685   1.084       .  S
C679        H686   1.083       .  S
C679        C680   1.394   1_565  A
C680        H687   1.083       .  S
C680        C681   1.407       .  A
C681        C682   1.405       .  A
C682        H688   1.084       .  S
C689        C690   1.407       .  A
C689        C694   1.406       .  A
C690        H699   1.083       .  S
C690        C691   1.398   1_545  A
C691        H700   1.083       .  S
C691        C692   1.402       .  A
C692        C698   1.406       .  A
C692        C693   1.414   1_564  A
C693        C695   1.400       .  A
C693        C694   1.404   1_556  A
C694        H701   1.084   1_554  S
C695        H702   1.083       .  S
C695        C696   1.396   1_545  A
C696        H703   1.083       .  S
C696        C697   1.409       .  A
C697        C698   1.407   1_556  A
C698        H704   1.084       .  S
C705        C706   1.405       .  A
C705        C710   1.408       .  A
C706        H715   1.083       .  S
C706        C707   1.398       .  A
C707        H716   1.084       .  S
C707        C708   1.403       .  A
C708        C714   1.403       .  A
C708        C709   1.413       .  A
C709        C711   1.404       .  A
C709        C710   1.403       .  A
C710        H717   1.084       .  S
C711        H718   1.084       .  S
C711        C712   1.398       .  A
C712        H719   1.083       .  S
C712        C713   1.402       .  A
C713        C714   1.405       .  A
C714        H720   1.085       .  S
C721        C722   1.403       .  A
C721        C726   1.406       .  A
C722        H731   1.083       .  S
C722        C723   1.404       .  A
C723        H732   1.083       .  S
C723        C724   1.408       .  A
C724        C730   1.405       .  A
C724        C725   1.411       .  A
C725        C727   1.400       .  A
C725        C726   1.393       .  A
C726        H733   1.085       .  S
C727        H734   1.084       .  S
C727        C728   1.391       .  A
C728        H735   1.083       .  S
C728        C729   1.403       .  A
C729        C730   1.410       .  A
C730        H736   1.084       .  S
C737        C738   1.409       .  A
C737        C742   1.406       .  A
C738        H747   1.083       .  S
C738        C739   1.390       .  A
C739        H748   1.084       .  S
C739        C740   1.396       .  A
C740        C746   1.399       .  A
C740        C741   1.416       .  A
C741        C743   1.402       .  A
C741        C742   1.406       .  A
C742        H749   1.084       .  S
C743        H750   1.084       .  S
C743        C744   1.398       .  A
C744        H751   1.083       .  S
C744        C745   1.406       .  A
C745        C746   1.398       .  A
C746        H752   1.085       .  S
C753        C754   1.409       .  A
C753        C758   1.404       .  A
C754        H763   1.083       .  S
C754        C755   1.400   1_556  A
C755        H764   1.084       .  S
C755        C756   1.402       .  A
C756        C762   1.408       .  A
C756        C757   1.414       .  A
C757        C759   1.398       .  A
C757        C758   1.402   1_554  A
C758        H765   1.084       .  S
C759        H766   1.084       .  S
C759        C760   1.393       .  A
C760        H767   1.083       .  S
C760        C761   1.408       .  A
C761        C762   1.408       .  A
C762        H768   1.084       .  S
C769        C770   1.404       .  A
C769        C774   1.406       .  A
C770        H779   1.083       .  S
C770        C771   1.400       .  A
C771        H780   1.083       .  S
C771        C772   1.405       .  A
C772        C778   1.404       .  A
C772        C773   1.413       .  A
C773        C775   1.403       .  A
C773        C774   1.402       .  A
C774        H781   1.084       .  S
C775        H782   1.083       .  S
C775        C776   1.397       .  A
C776        H783   1.083       .  S
C776        C777   1.403       .  A
C777        C778   1.408       .  A
C778        H784   1.084       .  S
C785        C786   1.414       .  A
C785        C790   1.403       .  A
C786        H795   1.083       .  S
C786        C787   1.392       .  A
C787        H796   1.084       .  S
C787        C788   1.395       .  A
C788        C794   1.405   1_655  A
C788        C789   1.417   1_655  A
C789        C791   1.398       .  A
C789        C790   1.409   1_455  A
C790        H797   1.084       .  S
C791        H798   1.084       .  S
C791        C792   1.396       .  A
C792        H799   1.083       .  S
C792        C793   1.412       .  A
C793        C794   1.402       .  A
C794        H800   1.084       .  S
C801        C802   1.413       .  A
C801        C806   1.406       .  A
C802        H811   1.083       .  S
C802        C803   1.397       .  A
C803        H812   1.083       .  S
C803        C804   1.398       .  A
C804        C810   1.413   1_655  A
C804        C805   1.417   1_655  A
C805        C807   1.399       .  A
C805        C806   1.413   1_455  A
C806        H813   1.084       .  S
C807        H814   1.083       .  S
C807        C808   1.398       .  A
C808        H815   1.083       .  S
C808        C809   1.413       .  A
C809        C810   1.407       .  A
C810        H816   1.084       .  S
C817        C818   1.404       .  A
C817        C822   1.410       .  A
C818        H827   1.083   1_556  S
C818        C819   1.400   1_556  A
C819        H828   1.084       .  S
C819        C820   1.404   1_554  A
C820        C826   1.404       .  A
C820        C821   1.413       .  A
C821        C823   1.405       .  A
C821        C822   1.403       .  A
C822        H829   1.084       .  S
C823        H830   1.084       .  S
C823        C824   1.399       .  A
C824        H831   1.083       .  S
C824        C825   1.402       .  A
C825        C826   1.405       .  A
C826        H832   1.085   1_556  S
C833        C834   1.411       .  A
C833        C838   1.408       .  A
C834        H843   1.083       .  S
C834        C835   1.401       .  A
C835        H844   1.084       .  S
C835        C836   1.402   1_455  A
C836        C842   1.413       .  A
C836        C837   1.416       .  A
C837        C839   1.401       .  A
C837        C838   1.410   1_655  A
C838        H845   1.084       .  S
C839        H846   1.084       .  S
C839        C840   1.398       .  A
C840        H847   1.084       .  S
C840        C841   1.408       .  A
C841        C842   1.407       .  A
C842        H848   1.084       .  S
C849        C850   1.408       .  A
C849        C854   1.407       .  A
C850        H859   1.083       .  S
C850        C851   1.398       .  A
C851        H860   1.083       .  S
C851        C852   1.402       .  A
C852        C858   1.407       .  A
C852        C853   1.414       .  A
C853        C855   1.401       .  A
C853        C854   1.405       .  A
C854        H861   1.084       .  S
C855        H862   1.083       .  S
C855        C856   1.397       .  A
C856        H863   1.083       .  S
C856        C857   1.408       .  A
C857        C858   1.408       .  A
C858        H864   1.084       .  S
C865        C866   1.407       .  A
C865        C870   1.407       .  A
C866        H875   1.083       .  S
C866        C867   1.397       .  A
C867        H876   1.083       .  S
C867        C868   1.402       .  A
C868        C874   1.403       .  A
C868        C869   1.413       .  A
C869        C871   1.401       .  A
C869        C870   1.402       .  A
C870        H877   1.084       .  S
C871        H878   1.083       .  S
C871        C872   1.396       .  A
C872        H879   1.083       .  S
C872        C873   1.407       .  A
C873        C874   1.407       .  A
C874        H880   1.084       .  S
C881        C882   1.411       .  A
C881        C886   1.407       .  A
C882        H891   1.083       .  S
C882        C883   1.396       .  A
C883        H892   1.084       .  S
C883        C884   1.398       .  A
C884        C890   1.410   1_455  A
C884        C885   1.416       .  A
C885        C887   1.399   1_455  A
C885        C886   1.411       .  A
C886        H893   1.084       .  S
C887        H894   1.084       .  S
C887        C888   1.397       .  A
C888        H895   1.083       .  S
C888        C889   1.411       .  A
C889        C890   1.406       .  A
C890        H896   1.084       .  S
C897        C898   1.403       .  A
C897        C902   1.413       .  A
C898        H907   1.083       .  S
C898        C899   1.397       .  A
C899        H908   1.083       .  S
C899        C900   1.404       .  A
C900        C906   1.398       .  A
C900        C901   1.409       .  A
C901        C903   1.407       .  A
C901        C902   1.402       .  A
C902        H909   1.084       .  S
C903        H910   1.083       .  S
C903        C904   1.402       .  A
C904        H911   1.083       .  S
C904        C905   1.404       .  A
C905        C906   1.411       .  A
C906        H912   1.084       .  S
C913        C914   1.404       .  A
C913        C918   1.410       .  A
C914        H923   1.083       .  S
C914        C915   1.392       .  A
C915        H924   1.084       .  S
C915        C916   1.400       .  A
C916        C922   1.398       .  A
C916        C917   1.413       .  A
C917        C919   1.406       .  A
C917        C918   1.409       .  A
C918        H925   1.084       .  S
C919        H926   1.083       .  S
C919        C920   1.404       .  A
C920        H927   1.083       .  S
C920        C921   1.406       .  A
C921        C922   1.406       .  A
C922        H928   1.084       .  S
C929        C930   1.405       .  A
C929        C934   1.409       .  A
C930        H939   1.083       .  S
C930        C931   1.400       .  A
C931        H940   1.084       .  S
C931        C932   1.404       .  A
C932        C938   1.405       .  A
C932        C933   1.412       .  A
C933        C935   1.402       .  A
C933        C934   1.403       .  A
C934        H941   1.084       .  S
C935        H942   1.084       .  S
C935        C936   1.397       .  A
C936        H943   1.083       .  S
C936        C937   1.406       .  A
C937        C938   1.410       .  A
C938        H944   1.084       .  S
C945        C946   1.404       .  A
C945        C950   1.411       .  A
C946        H955   1.083       .  S
C946        C947   1.394       .  A
C947        H956   1.084       .  S
C947        C948   1.401       .  A
C948        C954   1.400       .  A
C948        C949   1.412       .  A
C949        C951   1.407       .  A
C949        C950   1.411       .  A
C950        H957   1.084       .  S
C951        H958   1.083       .  S
C951        C952   1.406       .  A
C952        H959   1.083       .  S
C952        C953   1.406       .  A
C953        C954   1.409       .  A
C954        H960   1.084       .  S
C961        C962   1.409       .  A
C961        C966   1.408       .  A
C962        H971   1.083       .  S
C962        C963   1.396       .  A
C963        H972   1.083       .  S
C963        C964   1.399       .  A
C964        C970   1.405   1_556  A
C964        C965   1.414       .  A
C965        C967   1.402       .  A
C965        C966   1.409       .  A
C966        H973   1.083       .  S
C967        H974   1.083       .  S
C967        C968   1.399   1_556  A
C968        H975   1.083       .  S
C968        C969   1.409       .  A
C969        C970   1.406       .  A
C970        H976   1.084       .  S
C977        C978   1.410       .  A
C977        C982   1.405       .  A
C978        H987   1.083       .  S
C978        C979   1.395       .  A
C979        H988   1.084       .  S
C979        C980   1.399       .  A
C980        C986   1.404       .  A
C980        C981   1.415       .  A
C981        C983   1.400       .  A
C981        C982   1.406       .  A
C982        H989   1.084       .  S
C983        H990   1.084       .  S
C983        C984   1.397       .  A
C984        H991   1.083       .  S
C984        C985   1.409       .  A
C985        C986   1.405       .  A
C986        H992   1.084       .  S
C993        C994   1.404       .  A
C993        C998   1.412       .  A
C994       H1003   1.083   1_554  S
C994        C995   1.401       .  A
C995       H1004   1.083   1_554  S
C995        C996   1.405       .  A
C996       C1002   1.404       .  A
C996        C997   1.410       .  A
C997        C999   1.404       .  A
C997        C998   1.403       .  A
C998       H1005   1.084       .  S
C999       H1006   1.083       .  S
C999       C1000   1.400       .  A
C1000      H1007   1.083       .  S
C1000      C1001   1.405       .  A
C1001      C1002   1.412       .  A
C1002      H1008   1.084   1_554  S
C1009      C1010   1.404       .  A
C1009      C1014   1.407       .  A
C1010      H1019   1.083       .  S
C1010      C1011   1.404       .  A
C1011      H1020   1.083       .  S
C1011      C1012   1.407       .  A
C1012      C1018   1.407       .  A
C1012      C1013   1.412       .  A
C1013      C1015   1.401       .  A
C1013      C1014   1.397       .  A
C1014      H1021   1.084       .  S
C1015      H1022   1.083       .  S
C1015      C1016   1.393       .  A
C1016      H1023   1.083       .  S
C1016      C1017   1.403       .  A
C1017      C1018   1.410       .  A
C1018      H1024   1.084       .  S
C1025      C1026   1.409       .  A
C1025      C1030   1.411       .  A
C1026      H1035   1.083       .  S
C1026      C1027   1.401       .  A
C1027      H1036   1.083       .  S
C1027      C1028   1.403       .  A
C1028      C1034   1.411       .  A
C1028      C1029   1.414       .  A
C1029      C1031   1.403       .  A
C1029      C1030   1.411       .  A
C1030      H1037   1.083       .  S
C1031      H1038   1.083       .  S
C1031      C1032   1.400       .  A
C1032      H1039   1.083       .  S
C1032      C1033   1.408       .  A
C1033      C1034   1.411       .  A
C1034      H1040   1.083       .  S
C1041      C1042   1.408       .  A
C1041      C1046   1.408       .  A
C1042      H1051   1.084       .  S
C1042      C1043   1.396       .  A
C1043      H1052   1.082       .  S
C1043      C1044   1.401       .  A
C1044      C1050   1.404       .  A
C1044      C1045   1.413       .  A
C1045      C1047   1.403       .  A
C1045      C1046   1.407       .  A
C1046      H1053   1.083       .  S
C1047      H1054   1.082       .  S
C1047      C1048   1.399       .  A
C1048      H1055   1.084       .  S
C1048      C1049   1.407       .  A
C1049      C1050   1.409       .  A
C1050      H1056   1.083       .  S
C1057      C1058   1.405       .  A
C1057      C1062   1.411       .  A
C1058      H1067   1.083       .  S
C1058      C1059   1.402       .  A
C1059      H1068   1.084       .  S
C1059      C1060   1.406       .  A
C1060      C1066   1.406       .  A
C1060      C1061   1.411       .  A
C1061      C1063   1.404       .  A
C1061      C1062   1.403       .  A
C1062      H1069   1.084       .  S
C1063      H1070   1.084       .  S
C1063      C1064   1.399       .  A
C1064      H1071   1.083       .  S
C1064      C1065   1.405       .  A
C1065      C1066   1.413       .  A
C1066      H1072   1.084       .  S
C1073      C1074   1.405       .  A
C1073      C1078   1.408       .  A
C1074      H1083   1.083       .  S
C1074      C1075   1.400       .  A
C1075      H1084   1.083       .  S
C1075      C1076   1.404       .  A
C1076      C1082   1.408       .  A
C1076      C1077   1.414       .  A
C1077      C1079   1.403       .  A
C1077      C1078   1.407       .  A
C1078      H1085   1.084       .  S
C1079      H1086   1.083       .  S
C1079      C1080   1.399       .  A
C1080      H1087   1.083       .  S
C1080      C1081   1.405       .  A
C1081      C1082   1.408       .  A
C1082      H1088   1.084       .  S
C1089      C1090   1.410       .  A
C1089      C1094   1.404       .  A
C1090      H1099   1.083       .  S
C1090      C1091   1.396       .  A
C1091      H1100   1.084       .  S
C1091      C1092   1.399       .  A
C1092      C1098   1.406       .  A
C1092      C1093   1.415       .  A
C1093      C1095   1.398       .  A
C1093      C1094   1.404       .  A
C1094      H1101   1.084       .  S
C1095      H1102   1.084       .  S
C1095      C1096   1.395       .  A
C1096      H1103   1.083       .  S
C1096      C1097   1.409       .  A
C1097      C1098   1.405       .  A
C1098      H1104   1.084       .  S
C1105      C1106   1.410       .  A
C1105      C1110   1.405       .  A
C1106      H1115   1.083       .  S
C1106      C1107   1.395       .  A
C1107      H1116   1.084       .  S
C1107      C1108   1.399       .  A
C1108      C1114   1.406       .  A
C1108      C1109   1.416       .  A
C1109      C1111   1.399       .  A
C1109      C1110   1.406       .  A
C1110      H1117   1.084       .  S
C1111      H1118   1.084       .  S
C1111      C1112   1.396       .  A
C1112      H1119   1.083       .  S
C1112      C1113   1.410       .  A
C1113      C1114   1.405       .  A
C1114      H1120   1.084       .  S
C1121      C1122   1.411       .  A
C1121      C1126   1.405       .  A
C1122      H1131   1.083       .  S
C1122      C1123   1.392       .  A
C1123      H1132   1.084       .  S
C1123      C1124   1.396       .  A
C1124      C1130   1.403       .  A
C1124      C1125   1.416       .  A
C1125      C1127   1.400       .  A
C1125      C1126   1.408       .  A
C1126      H1133   1.084       .  S
C1127      H1134   1.084       .  S
C1127      C1128   1.397       .  A
C1128      H1135   1.083       .  S
C1128      C1129   1.410       .  A
C1129      C1130   1.402       .  A
C1130      H1136   1.084       .  S
C1137      C1138   1.411       .  A
C1137      C1142   1.405       .  A
C1138      H1147   1.083       .  S
C1138      C1139   1.402       .  A
C1139      H1148   1.083       .  S
C1139      C1140   1.402       .  A
C1140      C1146   1.414       .  A
C1140      C1141   1.415       .  A
C1141      C1143   1.397       .  A
C1141      C1142   1.405       .  A
C1142      H1149   1.084       .  S
C1143      H1150   1.084       .  S
C1143      C1144   1.393       .  A
C1144      H1151   1.083       .  S
C1144      C1145   1.411       .  A
C1145      C1146   1.409       .  A
C1146      H1152   1.084       .  S
