geometry optimzed in LAMMPS
_audit_creation_date              2020-11-30 
_audit_creation_method            'lammps2cif' 
_symmetry_space_group_name_H-M    'P1' 
_symmetry_Int_Tables_number       1 
_symmetry_cell_setting            triclinic 
loop_ 
_symmetry_equiv_pos_as_xyz 
  x,y,z 
_cell_length_a                    41.7127984 
_cell_length_b                    40.446218499225864 
_cell_length_c                    26.165868537673646 
_cell_angle_alpha                 88.34637112777541 
_cell_angle_beta                  86.8172830473045 
_cell_angle_gamma                 119.44378685270573 
loop_ 
_atom_site_label 
_atom_site_type_symbol 
_atom_site_fract_x 
_atom_site_fract_y 
_atom_site_fract_z 
_atom_site_charge 
O1          O  0.82430429  0.32913680  0.08375184    -0.81700
O2          O  0.81874301  0.32868622  0.31830153    -0.66400
O3          O  0.84585758  0.35787609  0.17664531    -1.13000
C4          C  0.86262558  0.24987505  0.17032418     1.05200
O5          O  0.85926055  0.30780275  0.32647212    -0.79600
O6          O  0.90432392  0.30715781  0.24769714    -0.67200
Ni7        Ni  0.81295961  0.35787928  0.13083013     1.34900
C8          C  0.92081772  0.34173254  0.23129586     0.83900
O9          O  0.82125657  0.38646754  0.25414430    -0.80200
O10         O  0.80209690  0.38812797  0.17500665    -0.90400
C11         C  0.83882298  0.32052072  0.34534469     0.83500
O12         O  0.76883501  0.31247458  0.15732293    -0.68600
O13         O  0.84843942  0.24097218  0.21673339    -0.87900
C14         C  0.75606400  0.30145677  0.20363893     0.84300
C15         C  0.80795615  0.39949405  0.22034513     1.05900
H16         H  0.81080663  0.27941477  0.22121049     0.37700
O17         O  0.83477036  0.29962253  0.22856790    -1.10600
O18         O  0.90675478  0.35291946  0.19682906    -0.67200
Ni19       Ni  0.86069097  0.32143460  0.16372128     1.26300
O20         O  0.77641969  0.31246105  0.24081808    -0.67500
O21         O  0.87413406  0.28303827  0.14935266    -0.79800
C22         C  0.85728963  0.34076257  0.06569600     0.83700
O23         O  0.88164845  0.34464004  0.09618248    -0.66900
Ni24       Ni  0.85337269  0.27534298  0.27028088     1.27400
Ni25       Ni  0.82908713  0.34281287  0.24610567     1.26100
H26         H  0.86736023  0.38298561  0.17437745     0.38200
O27         O  0.80263773  0.32848372  0.58645294    -0.81700
O28         O  0.81964427  0.32885503  0.82699437    -0.66400
O29         O  0.82942421  0.35279400  0.68203546    -1.13000
C30         C  0.87399289  0.26496217  0.66926494     1.05200
O31         O  0.86944928  0.32216744  0.82382341    -0.79600
O32         O  0.91211460  0.33166388  0.74195498    -0.67200
Ni33       Ni  0.78703400  0.34334709  0.64852056     1.34900
C34         C  0.92001569  0.36139248  0.71443628     0.83900
O35         O  0.80987266  0.37988558  0.76477343    -0.80200
O36         O  0.76859003  0.35882045  0.70629428    -0.90400
C37         C  0.84568166  0.32750494  0.84882424     0.83500
O38         O  0.75922330  0.29160448  0.67502617    -0.68600
O39         O  0.86691984  0.25759494  0.71759940    -0.87900
C40         C  0.74980318  0.28092763  0.72233003     0.84300
C41         C  0.78752684  0.38379750  0.73675281     1.05900
H42         H  0.81254809  0.27805265  0.73275522     0.37700
O43         O  0.83494895  0.30212702  0.73377367    -1.10600
O44         O  0.89818892  0.36280170  0.68274067    -0.67200
Ni45       Ni  0.85025598  0.32215546  0.66430116     1.26300
O46         O  0.76970054  0.30093386  0.75704226    -0.67500
O47         O  0.87149116  0.29140038  0.64595638    -0.79800
C48         C  0.83358306  0.33381773  0.56644370     0.83700
O49         O  0.86043886  0.34106109  0.59383164    -0.66900
Ni50       Ni  0.86645006  0.29026172  0.76976119     1.27400
Ni51       Ni  0.82206594  0.33994101  0.75387924     1.26100
H52         H  0.84779482  0.37930691  0.67556662     0.38200
O53         O  0.51710495  0.19424420  0.08200593    -0.81700
O54         O  0.50895034  0.16935362  0.31595875    -0.66400
O55         O  0.52469204  0.16332356  0.17359413    -1.13000
C56         C  0.39357956  0.10307837  0.17187170     1.05200
O57         O  0.45480898  0.11506066  0.32782501    -0.79600
O58         O  0.42801529  0.06902629  0.25187297    -0.67200
Ni59       Ni  0.55401637  0.20754678  0.12988015     1.34900
C60         C  0.44717034  0.06256917  0.21855893     0.83900
O61         O  0.57128447  0.19198751  0.25202336    -0.80200
O62         O  0.59319060  0.22323483  0.17386523    -0.90400
C63         C  0.48387737  0.14169398  0.34441625     0.83500
O64         O  0.53937825  0.24145120  0.15934613    -0.68600
O65         O  0.39123968  0.10548325  0.22037726    -0.87900
C66         C  0.53216273  0.24553655  0.20576982     0.84300
C67         C  0.59787646  0.21538975  0.21947642     1.05900
H68         H  0.46270745  0.16998326  0.22530653     0.37700
O69         O  0.46704981  0.14870154  0.22899149    -1.10600
O70         O  0.46886169  0.08740098  0.18266145    -0.67200
Ni71       Ni  0.47416375  0.13706237  0.16071593     1.26300
O72         O  0.52456912  0.21984487  0.24080228    -0.67500
O73         O  0.42369113  0.11219407  0.14620865    -0.79800
C74         C  0.50067018  0.16232387  0.06230063     0.83700
O75         O  0.48563017  0.13161013  0.09087445    -0.66900
Ni76       Ni  0.42550883  0.11228450  0.27196936     1.27400
Ni77       Ni  0.51827848  0.16908732  0.24403652     1.26100
H78         H  0.53475284  0.14642476  0.16982997     0.38200
O79         O  0.53363109  0.17805805  0.57118985    -0.81700
O80         O  0.51981584  0.16941882  0.81278566    -0.66400
O81         O  0.52492386  0.14883737  0.67350206    -1.13000
C82         C  0.40241718  0.11817233  0.66820533     1.05200
O83         O  0.45999763  0.15140888  0.83000473    -0.79600
O84         O  0.44712867  0.09378831  0.77276844    -0.67200
Ni85       Ni  0.56409737  0.18655415  0.62807265     1.34900
C86         C  0.44367488  0.07328009  0.73582734     0.83900
O87         O  0.57020858  0.16386339  0.75249151    -0.80200
O88         O  0.59934386  0.19718634  0.67834841    -0.90400
C89         C  0.49238780  0.16247593  0.84348969     0.83500
O90         O  0.55711977  0.22834640  0.64735429    -0.68600
O91         O  0.40008175  0.10894330  0.71577394    -0.87900
C92         C  0.55634762  0.23888730  0.69256244     0.84300
C93         C  0.59961833  0.18346320  0.72278157     1.05900
H94         H  0.48215947  0.18660702  0.72106015     0.37700
O95         O  0.47821878  0.16107556  0.72588823    -1.10600
O96         O  0.45291041  0.08763232  0.68894413    -0.67200
Ni97       Ni  0.47815160  0.14178630  0.66026846     1.26300
O98         O  0.54864181  0.21623370  0.73174259    -0.67500
O99         O  0.43324361  0.13898120  0.64421324    -0.79800
C100        C  0.50462009  0.14838364  0.55987684     0.83700
O101        O  0.48111225  0.12489095  0.59417684    -0.66900
Ni102      Ni  0.43417014  0.13225802  0.76986025     1.27400
Ni103      Ni  0.52352035  0.16142945  0.74224908     1.26100
H104        H  0.52512065  0.12507148  0.67233661     0.38200
O105        O  0.67974349  0.46737142  0.05381268    -0.81700
O106        O  0.66883206  0.49231830  0.28612848    -0.66400
O107        O  0.64859283  0.47284652  0.14873315    -1.13000
C108        C  0.72398040  0.60390674  0.10384815     1.05200
O109        O  0.69983854  0.55583117  0.28550415    -0.79600
O110        O  0.65913306  0.56602739  0.21598336    -0.67200
Ni111      Ni  0.65865302  0.43660439  0.11799658     1.34900
C112        C  0.63548441  0.55091750  0.18318900     0.83900
O113        O  0.61868422  0.43099765  0.23718021    -0.80200
O114        O  0.63578469  0.40218023  0.17800351    -0.90400
C115        C  0.68466121  0.52290621  0.30890375     0.83500
O116        O  0.70708035  0.45435702  0.14213319    -0.68600
O117        O  0.72167248  0.60956734  0.15130131    -0.87900
C118        C  0.71394582  0.45761976  0.18911369     0.84300
C119        C  0.61323206  0.40118681  0.21396254     1.05900
H120        H  0.72215219  0.53123743  0.18436159     0.37700
O121        O  0.69907812  0.53147352  0.18734128    -1.10600
O122        O  0.64128042  0.53609373  0.14298715    -0.67200
Ni123      Ni  0.67946156  0.52240744  0.12148094     1.26300
O124        O  0.69417003  0.46386991  0.22151165    -0.67500
O125        O  0.71195767  0.57097153  0.08901770    -0.79800
C126        C  0.66918247  0.48867953  0.03207994     0.83700
O127        O  0.65952309  0.50887024  0.05765701    -0.66900
Ni128      Ni  0.70900965  0.57851719  0.21619730     1.27400
Ni129      Ni  0.65933103  0.48197215  0.21686274     1.26100
H130        H  0.62307515  0.46572474  0.14529948     0.38200
O131        O  0.69446779  0.48718687  0.55048588    -0.81700
O132        O  0.65742810  0.48169481  0.78514945    -0.66400
O133        O  0.65127634  0.47818408  0.64166955    -1.13000
C134        C  0.71856958  0.61069007  0.62706722     1.05200
O135        O  0.68676337  0.54423074  0.79608199    -0.79600
O136        O  0.64477462  0.55232930  0.72755295    -0.67200
Ni137      Ni  0.66664291  0.44792820  0.60484941     1.34900
C138        C  0.62701010  0.54420184  0.68770333     0.83900
O139        O  0.61793446  0.42543758  0.72234712    -0.80200
O140        O  0.63780167  0.40567814  0.65362910    -0.90400
C141        C  0.67179115  0.50968842  0.81325982     0.83500
O142        O  0.71108474  0.46155257  0.63858788    -0.68600
O143        O  0.70657758  0.60870114  0.67345313    -0.87900
C144        C  0.71497126  0.46210493  0.68651435     0.84300
C145        C  0.61688292  0.39912976  0.69458484     1.05900
H146        H  0.71816965  0.53378953  0.69610028     0.37700
O147        O  0.69414684  0.53180270  0.69559363    -1.10600
O148        O  0.64061620  0.53959396  0.64444807    -0.67200
Ni149      Ni  0.68255857  0.53037677  0.62616141     1.26300
O150        O  0.69231355  0.46473200  0.71777225    -0.67500
O151        O  0.71697132  0.58213729  0.60715166    -0.79800
C152        C  0.68329236  0.50823781  0.52982476     0.83700
O153        O  0.67068355  0.52526539  0.55710516    -0.66900
Ni154      Ni  0.69574297  0.57281118  0.73212697     1.27400
Ni155      Ni  0.65510218  0.47910687  0.71288044     1.26100
H156        H  0.62624977  0.47094585  0.63447086     0.38200
O157        O  0.30775594  0.78728000  0.41642004    -0.81700
O158        O  0.32545914  0.81153835  0.17813443    -0.66400
O159        O  0.34239662  0.81983970  0.31811032    -1.13000
C160        C  0.27144009  0.87795873  0.33499690     1.05200
O161        O  0.29100729  0.83923820  0.16663586    -0.79600
O162        O  0.33765188  0.89330077  0.22487719    -0.67200
Ni163      Ni  0.33251662  0.77614362  0.35946015     1.34900
C164        C  0.35908484  0.90584550  0.26057856     0.83900
O165        O  0.37259544  0.80256040  0.23657932    -0.80200
O166        O  0.35915148  0.76388666  0.30812593    -0.90400
C167        C  0.30839447  0.82264960  0.14993097     0.83500
O168        O  0.28586455  0.74088582  0.33392172    -0.68600
O169        O  0.28014772  0.88746666  0.28732742    -0.87900
C170        C  0.27844191  0.73525622  0.28731689     0.84300
C171        C  0.37811087  0.77994003  0.26562225     1.05900
H172        H  0.26948766  0.80038477  0.27271044     0.37700
O173        O  0.29289703  0.82376952  0.26880048    -1.10600
O174        O  0.34912934  0.88974313  0.30678354    -0.67200
Ni175      Ni  0.31004174  0.83771500  0.33480312     1.26300
O176        O  0.29791035  0.76046649  0.25210214    -0.67500
O177        O  0.27454652  0.85154576  0.35557115    -0.79800
C178        C  0.31750673  0.82024509  0.43247894     0.83700
O179        O  0.32737375  0.84862467  0.40103115    -0.66900
Ni180      Ni  0.28639627  0.86057475  0.22977349     1.27400
Ni181      Ni  0.33300515  0.81395050  0.24884214     1.26100
H182        H  0.36760991  0.83947059  0.32103536     0.38200
O183        O  0.31435507  0.77861413  0.91165860    -0.81700
O184        O  0.33193225  0.82478224  0.67582484    -0.66400
O185        O  0.34642826  0.82112993  0.81666822    -1.13000
C186        C  0.26443302  0.86544079  0.85308577     1.05200
O187        O  0.29403138  0.84944588  0.67326137    -0.79600
O188        O  0.33385190  0.90037411  0.74277652    -0.67200
Ni189      Ni  0.33778490  0.77399338  0.84799172     1.34900
C190        C  0.35225546  0.91080451  0.78199190     0.83900
O191        O  0.38099554  0.81480629  0.73051999    -0.80200
O192        O  0.36233105  0.76598889  0.78925575    -0.90400
C193        C  0.31313903  0.83610980  0.65169788     0.83500
O194        O  0.29032885  0.74358009  0.82202262    -0.68600
O195        O  0.27038260  0.87752067  0.80590650    -0.87900
C196        C  0.28473204  0.74067279  0.77466631     0.84300
C197        C  0.38556596  0.78918315  0.75398506     1.05900
H198        H  0.27333243  0.80111655  0.77271690     0.37700
O199        O  0.29519528  0.82510396  0.77199312    -1.10600
O200        O  0.34469769  0.88869704  0.82299492    -0.67200
Ni201      Ni  0.31068330  0.83326080  0.83995106     1.26300
O202        O  0.30583015  0.76717878  0.74153056    -0.67500
O203        O  0.27250600  0.84103410  0.86816646    -0.79800
C204        C  0.31954047  0.80878773  0.93242650     0.83700
O205        O  0.32726474  0.83869662  0.90597015    -0.66900
Ni206      Ni  0.28410094  0.86151205  0.74156308     1.27400
Ni207      Ni  0.33829644  0.82114517  0.74681245     1.26100
H208        H  0.37099252  0.84133243  0.82246711     0.38200
O209        O  0.19256303  0.51296123  0.40621526    -0.81700
O210        O  0.16309704  0.49494106  0.17315182    -0.66400
O211        O  0.15784396  0.50733840  0.31535488    -1.13000
C212        C  0.11636309  0.37570988  0.34608165     1.05200
O213        O  0.12980486  0.43163367  0.17027497    -0.79600
O214        O  0.08046429  0.40949646  0.25166784    -0.67200
Ni215      Ni  0.20244381  0.54304824  0.34300594     1.34900
C216        C  0.06976152  0.42192103  0.28896530     0.83900
O217        O  0.17039594  0.55338480  0.23148649    -0.80200
O218        O  0.21593422  0.57715292  0.28363843    -0.90400
C219        C  0.14618882  0.46522114  0.14878439     0.83500
O220        O  0.23129643  0.52212493  0.31444732    -0.68600
O221        O  0.11168375  0.37174385  0.29833398    -0.87900
C222        C  0.23842793  0.52298676  0.26644152     0.84300
C223        C  0.19458471  0.58135268  0.25480229     1.05900
H224        H  0.17852273  0.45279414  0.26641612     0.37700
O225        O  0.15489458  0.45179326  0.26740643    -1.10600
O226        O  0.09030626  0.43991620  0.32514918    -0.67200
Ni227      Ni  0.14267623  0.45705020  0.33747809     1.26300
O228        O  0.21511459  0.52040489  0.23521399    -0.67500
O229        O  0.13077096  0.40797962  0.36386768    -0.79800
C230        C  0.16187410  0.48882107  0.42953521     0.83700
O231        O  0.13413888  0.46711426  0.40574727    -0.66900
Ni232      Ni  0.12297593  0.40550612  0.23654499     1.27400
Ni233      Ni  0.16223009  0.50186467  0.24466319     1.26100
H234        H  0.13849772  0.51338563  0.32349140     0.38200
O235        O  0.17503033  0.50419908  0.90841876    -0.81700
O236        O  0.17177615  0.50327743  0.67544375    -0.66400
O237        O  0.14970083  0.50972283  0.81476586    -1.13000
C238        C  0.09781884  0.37535975  0.83825216     1.05200
O239        O  0.13825991  0.44054773  0.66701333    -0.79600
O240        O  0.08026004  0.41705583  0.73582121    -0.67200
Ni241      Ni  0.18586167  0.54336598  0.85603741     1.34900
C242        C  0.06694742  0.43239173  0.76535944     0.83900
O243        O  0.17571228  0.56025912  0.73090647    -0.80200
O244        O  0.19652897  0.58398347  0.80719980    -0.90400
C245        C  0.15731086  0.47475189  0.64854463     0.83500
O246        O  0.22848139  0.54091214  0.82849166    -0.68600
O247        O  0.10245220  0.37444966  0.79003839    -0.87900
C248        C  0.23759368  0.53722592  0.78267750     0.84300
C249        C  0.19033597  0.58791971  0.76074403     1.05900
H250        H  0.17271400  0.45543863  0.77507329     0.37700
O251        O  0.15002545  0.45535846  0.76917566    -1.10600
O252        O  0.08197651  0.44795859  0.80670980    -0.67200
Ni253      Ni  0.12915275  0.45805309  0.83512676     1.26300
O254        O  0.21447205  0.52431603  0.74901763    -0.67500
O255        O  0.10877622  0.40630865  0.85931575    -0.79800
C256        C  0.14262734  0.48266674  0.92956917     0.83700
O257        O  0.11516497  0.46625545  0.90234793    -0.66900
Ni258      Ni  0.12238556  0.41129631  0.73158384     1.27400
Ni259      Ni  0.16263556  0.50734509  0.74602337     1.26100
H260        H  0.13016754  0.51608109  0.81592067     0.38200
O261        O  0.47221215  0.65667912  0.38123385    -0.81700
O262        O  0.47710702  0.65507632  0.14379222    -0.66400
O263        O  0.46910901  0.62660880  0.28568575    -1.13000
C264        C  0.59800204  0.71646176  0.28192019     1.05200
O265        O  0.53607706  0.66997738  0.12707927    -0.79600
O266        O  0.56847033  0.65093169  0.19836012    -0.67200
Ni267      Ni  0.43575621  0.63115554  0.33299319     1.34900
C268        C  0.55170105  0.62181786  0.22974262     0.83900
O269        O  0.42011593  0.60317605  0.21023493    -0.80200
O270        O  0.39653753  0.60446875  0.28969725    -0.90400
C271        C  0.50432846  0.66114294  0.11278089     0.83500
O272        O  0.44362794  0.67942330  0.30674359    -0.68600
O273        O  0.59818707  0.72358544  0.23415014    -0.87900
C274        C  0.44902317  0.69384253  0.26119610     0.84300
C275        C  0.39289717  0.59264030  0.24450745     1.05900
H276        H  0.52149349  0.70322690  0.23453411     0.37700
O277        O  0.52152109  0.67973489  0.22902147    -1.10600
O278        O  0.53065477  0.62009097  0.26878421    -0.67200
Ni279      Ni  0.51949246  0.65831245  0.29590495     1.26300
O280        O  0.45679244  0.67940405  0.22350379    -0.67500
O281        O  0.56995608  0.69046531  0.30795538    -0.79800
C282        C  0.49523499  0.64721702  0.39628901     0.83700
O283        O  0.51299159  0.63760124  0.36463682    -0.66900
Ni284      Ni  0.56430305  0.69504052  0.18344092     1.27400
Ni285      Ni  0.47159191  0.64154099  0.21578521     1.26100
H286        H  0.46340059  0.60035452  0.28812158     0.38200
O287        O  0.47449550  0.66239005  0.87804324    -0.81700
O288        O  0.48193643  0.66173557  0.64218960    -0.66400
O289        O  0.46818957  0.63058736  0.78354948    -1.13000
C290        C  0.59879782  0.70890628  0.78888944     1.05200
O291        O  0.54078979  0.67499869  0.62770155    -0.79600
O292        O  0.56602057  0.64678124  0.69877351    -0.67200
Ni293      Ni  0.43739483  0.63927973  0.83031972     1.34900
C294        C  0.54707216  0.61745784  0.72911797     0.83900
O295        O  0.42027815  0.61418999  0.70659669    -0.80200
O296        O  0.39812162  0.61539459  0.78719188    -0.90400
C297        C  0.50940860  0.66679849  0.61240309     0.83500
O298        O  0.44846101  0.68885955  0.80329661    -0.68600
O299        O  0.60152927  0.71674411  0.74075823    -0.87900
C300        C  0.45621174  0.70417854  0.75784743     0.84300
C301        C  0.39341284  0.60609376  0.74093601     1.05900
H302        H  0.52679295  0.70562328  0.73640033     0.37700
O303        O  0.52452752  0.68119030  0.73006522    -1.10600
O304        O  0.52650103  0.61697094  0.76823359    -0.67200
Ni305      Ni  0.51846232  0.65726195  0.79651911     1.26300
O306        O  0.46445579  0.68944214  0.72097038    -0.67500
O307        O  0.56842256  0.68524117  0.81258121    -0.79800
C308        C  0.49255550  0.64733729  0.89526184     0.83700
O309        O  0.50794338  0.63439932  0.86475402    -0.66900
Ni310      Ni  0.56805439  0.69432307  0.68694885     1.27400
Ni311      Ni  0.47352023  0.64740698  0.71406665     1.26100
H312        H  0.45973979  0.60361245  0.78545842     0.38200
O313        O  0.14271279  0.99030894  0.12326431    -0.81700
O314        O  0.16075483  0.97618969  0.88746743    -0.66400
O315        O  0.14660528  0.95752898  0.03158161    -1.13000
C316        C  0.27203476  0.04131959  0.04031644     1.05200
O317        O  0.21986239  0.02316189  0.87419648    -0.79600
O318        O  0.23221400  0.97759400  0.93731353    -0.67200
Ni319      Ni  0.10999768  0.96229002  0.07091011     1.34900
C320        C  0.22232416  0.95337156  0.97512276     0.83900
O321        O  0.10400453  0.92350582  0.95500869    -0.80200
O322        O  0.07458461  0.93236542  0.02388538    -0.90400
C323        C  0.18904451  0.99923451  0.85815250     0.83500
O324        O  0.11777820  0.00873938  0.03666983    -0.68600
O325        O  0.27586214  0.03744351  0.99269671    -0.87900
C326        C  0.11869416  0.01525150  0.98858754     0.84300
C327        C  0.07465397  0.91415241  0.98470233     1.05900
H328        H  0.19473088  0.03497295  0.97718919     0.37700
O329        O  0.19823071  0.01310378  0.97599753    -1.10600
O330        O  0.21194548  0.95833050  0.02069994    -0.67200
Ni331      Ni  0.19427231  0.99365120  0.04454430     1.26300
O332        O  0.12842579  0.99859529  0.95604178    -0.67500
O333        O  0.24095823  0.03161874  0.06219931    -0.79800
C334        C  0.16695300  0.98379543  0.14186439     0.83700
O335        O  0.18595124  0.97391316  0.11331466    -0.66900
Ni336      Ni  0.24394746  0.02863812  0.93646985     1.27400
Ni337      Ni  0.15212281  0.96804380  0.96062370     1.26100
H338        H  0.14294505  0.93228085  0.03874820     0.38200
O339        O  0.16791548  0.01221634  0.61632938    -0.81700
O340        O  0.16467813  0.99686515  0.38666466    -0.66400
O341        O  0.15565310  0.97412847  0.52863109    -1.13000
C342        C  0.28469841  0.05755275  0.53018151     1.05200
O343        O  0.22625786  0.02645246  0.36850833    -0.79600
O344        O  0.25457454  0.00080406  0.43769326    -0.67200
Ni345      Ni  0.12734243  0.98659326  0.57401718     1.34900
C346        C  0.23898773  0.97029931  0.46641614     0.83900
O347        O  0.10613932  0.95155550  0.45594562    -0.80200
O348        O  0.08609815  0.95989175  0.53453960    -0.90400
C349        C  0.19313817  0.00946553  0.35541508     0.83500
O350        O  0.13637760  0.03439632  0.54148212    -0.68600
O351        O  0.28590219  0.06905879  0.48375065    -0.87900
C352        C  0.13836916  0.04307565  0.49376787     0.84300
C353        C  0.08015104  0.94704910  0.48992574     1.05900
H354        H  0.20814593  0.04834128  0.48099607     0.37700
O355        O  0.20904447  0.02563916  0.47307443    -1.10600
O356        O  0.21703792  0.96487857  0.50680331    -0.67200
Ni357      Ni  0.20601294  0.00228840  0.53883746     1.26300
O358        O  0.14620632  0.02591594  0.46047000    -0.67500
O359        O  0.25588895  0.03066336  0.55284674    -0.79800
C360        C  0.18207157  0.99395074  0.63686093     0.85500
O361        O  0.19688780  0.97983177  0.60714865    -0.66900
Ni362      Ni  0.25287990  0.04599416  0.42896663     1.27400
Ni363      Ni  0.15898928  0.98717175  0.45905106     1.26100
H364        H  0.14736893  0.94726418  0.53356370     0.38200
O365        O  0.99247623  0.12885485  0.11373429    -0.81700
O366        O  0.98486598  0.11969151  0.87934055    -0.66400
O367        O  0.01742784  0.14918722  0.01160899    -1.13000
C368        C  0.91903276  0.17720821  0.03416953     1.05200
O369        O  0.96481854  0.16127065  0.86681849    -0.79600
O370        O  0.97721248  0.21478129  0.93303885    -0.67200
Ni371      Ni  0.01705444  0.11453122  0.06156535     1.34900
C372        C  0.00805168  0.23004491  0.95289411     0.83900
O373        O  0.04091226  0.12135633  0.93223116    -0.80200
O374        O  0.04305886  0.10012898  0.01267008    -0.90400
C375        C  0.97597866  0.13902771  0.84989292     0.83500
O376        O  0.97098440  0.07045422  0.04927068    -0.68600
O377        O  0.91010942  0.16586891  0.98936120    -0.87900
C378        C  0.95989457  0.05772655  0.00605273     0.84300
C379        C  0.05241104  0.10547118  0.96446512     1.05900
H380        H  0.94017751  0.11669998  0.98389008     0.37700
O381        O  0.96069745  0.14087066  0.97079270    -1.10600
O382        O  0.01554050  0.21376148  0.98929133    -0.67200
Ni383      Ni  0.98386727  0.16628851  0.02951101     1.26300
O384        O  0.97063311  0.07896704  0.96514615    -0.67500
O385        O  0.94944371  0.18288820  0.04996904    -0.79800
C386        C  0.00422333  0.16332436  0.12431088     0.83700
O387        O  0.00837520  0.18760940  0.08909067    -0.66900
Ni388      Ni  0.93916575  0.16307059  0.92990510     1.27400
Ni389      Ni  0.00080830  0.13219043  0.94699237     1.26100
H390        H  0.04219429  0.17062118  0.00678340     0.38200
O391        O  0.98304913  0.11087682  0.60739113    -0.81700
O392        O  0.01426238  0.15946118  0.37135466    -0.66400
O393        O  0.01894362  0.15078743  0.51406013    -1.13000
C394        C  0.94246344  0.20368636  0.53244419     1.05200
O395        O  0.97047041  0.17488903  0.36183517    -0.79600
O396        O  0.01251877  0.22692436  0.42596698    -0.67200
Ni397      Ni  0.00808628  0.10402194  0.54717646     1.34900
C398        C  0.03301019  0.23739897  0.46303371     0.83900
O399        O  0.05692275  0.14461312  0.43309834    -0.80200
O400        O  0.03465819  0.09518315  0.49199280    -0.90400
C401        C  0.99620509  0.16937055  0.34327265     0.83500
O402        O  0.96233916  0.07457682  0.51648534    -0.68600
O403        O  0.95151757  0.21479818  0.48532092    -0.87900
C404        C  0.95920616  0.07153090  0.46845987     0.84300
C405        C  0.05943046  0.11827550  0.45812036     1.05900
H406        H  0.94874250  0.13205054  0.46374907     0.37700
O407        O  0.97104894  0.15641267  0.46296266    -1.10600
O408        O  0.02333277  0.21967051  0.50836668    -0.67200
Ni409      Ni  0.98479454  0.16624612  0.53142189     1.26300
O410        O  0.98204589  0.09822406  0.43658827    -0.67500
O411        O  0.94840979  0.17885592  0.55235951    -0.79800
C412        C  0.99051460  0.14201807  0.62760848     0.83700
O413        O  0.99896283  0.17206147  0.60002722    -0.66900
Ni414      Ni  0.96209118  0.19219551  0.42639258     1.27400
Ni415      Ni  0.01463961  0.15197978  0.44351635     1.26100
H416        H  0.04337833  0.17006607  0.52152881     0.38200
O417        O  0.85544516  0.85667112  0.81996246    -0.81700
O418        O  0.84356614  0.81682176  0.05540584    -0.66400
O419        O  0.85149128  0.81592018  0.91043823    -1.13000
C420        C  0.72568386  0.77893653  0.91335930     1.05200
O421        O  0.78580987  0.80530307  0.07450347    -0.79600
O422        O  0.76693957  0.74954695  0.00984445    -0.67200
Ni423      Ni  0.88900162  0.85659109  0.86830113     1.34900
C424        C  0.77609730  0.73584933  0.97232739     0.83900
O425        O  0.89602060  0.82006537  0.98403885    -0.80200
O426        O  0.92485569  0.85721881  0.91165999    -0.90400
C427        C  0.81667295  0.81014965  0.08765310     0.83500
O428        O  0.88799820  0.89736886  0.90271783    -0.68600
O429        O  0.72435561  0.77251412  0.96137866    -0.87900
C430        C  0.88752741  0.90164782  0.95062400     0.84300
C431        C  0.92475518  0.83864593  0.95216873     1.05900
H432        H  0.80851240  0.84649809  0.96856480     0.37700
O433        O  0.80349377  0.82047085  0.97000267    -1.10600
O434        O  0.78569607  0.75198899  0.92600192    -0.67200
Ni435      Ni  0.80372140  0.80604333  0.90077612     1.26300
O436        O  0.87546405  0.87385789  0.98395249    -0.67500
O437        O  0.75607288  0.79744226  0.88711132    -0.79800
C438        C  0.83023782  0.82711625  0.80118059     0.83700
O439        O  0.80942399  0.79716631  0.83013653    -0.66900
Ni440      Ni  0.75916106  0.79124692  0.01395444     1.27400
Ni441      Ni  0.84904773  0.81917592  0.98162370     1.26100
H442        H  0.85330375  0.79354486  0.90330008     0.38200
O443        O  0.84676234  0.84340953  0.31905168    -0.81700
O444        O  0.83960146  0.85475646  0.55233290    -0.66400
O445        O  0.84981002  0.82418315  0.41962670    -1.13000
C446        C  0.72319497  0.78669039  0.40641757     1.05200
O447        O  0.77863083  0.81668382  0.56932496    -0.79600
O448        O  0.74662218  0.76054100  0.50845701    -0.67200
Ni449      Ni  0.88347088  0.85940140  0.36794292     1.34900
C450        C  0.76143827  0.74288671  0.48757898     0.83900
O451        O  0.89636668  0.85458105  0.49538367    -0.80200
O452        O  0.92199764  0.87620595  0.41395218    -0.90400
C453        C  0.81121726  0.83599575  0.58358303     0.83500
O454        O  0.87588957  0.90167694  0.38055212    -0.68600
O455        O  0.72281158  0.80077869  0.44940949    -0.87900
C456        C  0.87508199  0.91556319  0.42302746     0.84300
C457        C  0.92431868  0.87088533  0.46173902     1.05900
H458        H  0.80065599  0.85465341  0.44897602     0.37700
O459        O  0.79805994  0.83107978  0.46315836    -1.10600
O460        O  0.78499952  0.75700977  0.44783860    -0.67200
Ni461      Ni  0.80025056  0.80424846  0.40488396     1.26300
O462        O  0.86597910  0.89530626  0.46480843    -0.67500
O463        O  0.75083341  0.78484538  0.38787814    -0.79800
C464        C  0.82764809  0.80913225  0.30733707     0.83700
O465        O  0.80837459  0.78358135  0.34310351    -0.66900
Ni466      Ni  0.75375011  0.81030627  0.50683972     1.27400
Ni467      Ni  0.84623626  0.84209102  0.48400441     1.26100
H468        H  0.85518267  0.80365577  0.42411414     0.38200
C469        C  0.81230677  0.85918055  0.67219633    -0.02700
C470        C  0.81627395  0.83432224  0.63919493     0.07000
C471        C  0.82429880  0.80674510  0.65959473    -0.02800
C472        C  0.82852067  0.80416666  0.71250075    -0.02800
C473        C  0.82457845  0.82903523  0.74566810     0.07100
C474        C  0.81745552  0.85730383  0.72491470    -0.03000
Br475      Br  0.81512917  0.89397929  0.76827942    -0.01500
Br476      Br  0.79888709  0.89514961  0.64526348    -0.01600
Br477      Br  0.84268481  0.76856671  0.73887026    -0.01600
Br478      Br  0.82891281  0.77195492  0.61487643    -0.01500
C479        C  0.85376568  0.83157176  0.16502823    -0.02700
C480        C  0.82070260  0.80657839  0.14367709     0.07000
C481        C  0.79176805  0.77685239  0.17607982    -0.02800
C482        C  0.79429812  0.77530078  0.22975971    -0.02800
C483        C  0.82662523  0.80217348  0.25132531     0.07100
C484        C  0.85746227  0.82769166  0.21764806    -0.03000
Br485      Br  0.90592831  0.85650562  0.24268816    -0.01500
Br486      Br  0.89302258  0.87407504  0.12409663    -0.01600
Br487      Br  0.75309791  0.73644584  0.27267115    -0.01600
Br488      Br  0.74875595  0.73716089  0.14742119    -0.01500
C489        C  0.93446699  0.02347485  0.39948243    -0.02700
C490        C  0.93013541  0.03481026  0.44918211     0.07000
C491        C  0.89899709  0.00889764  0.48181778    -0.02800
C492        C  0.87766707  0.97067829  0.46952014    -0.02800
C493        C  0.88801417  0.95732051  0.42562101     0.07100
C494        C  0.91461885  0.98473286  0.38846818    -0.03000
Br495      Br  0.92601833  0.97036516  0.32280405    -0.01500
Br496      Br  0.96608414  0.06007649  0.34460614    -0.01600
Br497      Br  0.83327002  0.93715610  0.51220368    -0.01600
Br498      Br  0.88371034  0.02581758  0.54208949    -0.01500
C499        C  0.95026414  0.13395995  0.76410935    -0.02700
C500        C  0.97912234  0.13688563  0.79310602     0.07000
C501        C  0.01155228  0.14066915  0.76696549    -0.02800
C502        C  0.01555984  0.14338135  0.71276616    -0.02800
C503        C  0.98727942  0.14199576  0.68426017     0.07100
C504        C  0.95459227  0.13709657  0.71007470    -0.03000
Br505      Br  0.91530371  0.13392629  0.67121735    -0.01500
Br506      Br  0.90330183  0.12248359  0.79815114    -0.01600
Br507      Br  0.06029403  0.15000238  0.67699139    -0.01600
Br508      Br  0.05104341  0.14278030  0.80436956    -0.01500
C509        C  0.02545049  0.15547090  0.20851311    -0.02700
C510        C  0.01054363  0.17319257  0.17829568     0.07000
C511        C  0.00021333  0.19809958  0.20123710    -0.02800
C512        C  0.99633324  0.19777836  0.25522755    -0.02800
C513        C  0.00523956  0.17443051  0.28629353     0.07100
C514        C  0.02486984  0.15808065  0.26187374    -0.03000
Br515      Br  0.05550862  0.14358330  0.29812924    -0.01500
Br516      Br  0.04905390  0.12938475  0.17655151    -0.01600
Br517      Br  0.98288239  0.23291082  0.28523675    -0.01600
Br518      Br  0.99283928  0.23382208  0.15974332    -0.01500
C519        C  0.90690647  0.00285526  0.96848125    -0.02700
C520        C  0.93647072  0.01622452  0.00061815     0.07000
C521        C  0.94886650  0.99119928  0.01746692    -0.02800
C522        C  0.93310037  0.95409050  0.00038900    -0.02800
C523        C  0.90332921  0.94066335  0.96881467     0.07100
C524        C  0.89012193  0.96512494  0.95328411    -0.03000
Br525      Br  0.84951600  0.94719576  0.91008843    -0.01500
Br526      Br  0.88986859  0.03653030  0.94374081    -0.01600
Br527      Br  0.95626735  0.92388345  0.01403070    -0.01600
Br528      Br  0.99048499  0.00864210  0.05904237    -0.01500
C529        C  0.01839005  0.94368023  0.49610894    -0.02700
C530        C  0.04034772  0.92728957  0.47974614     0.07000
C531        C  0.02269427  0.89030847  0.46199713    -0.02800
C532        C  0.98390740  0.87035666  0.46004798    -0.02800
C533        C  0.96241349  0.88676882  0.47672759     0.07100
C534        C  0.97977084  0.92335172  0.49497309    -0.03000
Br535      Br  0.95052433  0.94654181  0.51578107    -0.01500
Br536      Br  0.04054147  0.99492322  0.51867879    -0.01600
Br537      Br  0.95968769  0.82033147  0.43414429    -0.01600
Br538      Br  0.05109348  0.86624218  0.44224040    -0.01500
C539        C  0.10903850  0.06541627  0.42901042    -0.02700
C540        C  0.12807198  0.07154626  0.47465073     0.07000
C541        C  0.13304829  0.10238872  0.50370630    -0.02800
C542        C  0.11544639  0.12335755  0.49121287    -0.02800
C543        C  0.09168649  0.11283713  0.45115183     0.07100
C544        C  0.08997951  0.08515398  0.41876953    -0.03000
Br545      Br  0.05643132  0.06970478  0.36535682    -0.01500
Br546      Br  0.10397137  0.02713773  0.38205968    -0.01600
Br547      Br  0.11959917  0.16351243  0.53327250    -0.01600
Br548      Br  0.16287719  0.11557127  0.56152757    -0.01500
C549        C  0.21221936  0.99090025  0.77189535    -0.02700
C550        C  0.18676623  0.99718450  0.80195200     0.07000
C551        C  0.15846147  0.99963587  0.77854959    -0.02800
C552        C  0.15570024  0.99633456  0.72532170    -0.02800
C553        C  0.18229791  0.99182275  0.69416581     0.07100
C554        C  0.20982914  0.98777509  0.71852345    -0.03000
Br555      Br  0.24465437  0.97753103  0.68059502    -0.01500
Br556      Br  0.25025182  0.98557866  0.80407428    -0.01600
Br557      Br  0.11333466  0.99569154  0.69737784    -0.01600
Br558      Br  0.12456068  0.00983679  0.81923838    -0.01500
C559        C  0.18521843  0.02682577  0.21467892    -0.02700
C560        C  0.17488569  0.99073158  0.19614570     0.07000
C561        C  0.17175395  0.96124593  0.22981624    -0.02800
C562        C  0.17711060  0.96726659  0.28216209    -0.02800
C563        C  0.18732151  0.00328494  0.30059742     0.07100
C564        C  0.19163503  0.03309094  0.26674295    -0.03000
Br565      Br  0.20544127  0.08220041  0.29235321    -0.01500
Br566      Br  0.19241331  0.06835604  0.16836938    -0.01600
Br567      Br  0.16993321  0.92597706  0.32891870    -0.01600
Br568      Br  0.15933511  0.91230631  0.20455460    -0.01500
C569        C  0.01134323  0.86210590  0.01749395    -0.02700
C570        C  0.03763021  0.88184353  0.97500090     0.07000
C571        C  0.02587628  0.87358636  0.92521200    -0.02800
C572        C  0.98781295  0.85190769  0.91879570    -0.02800
C573        C  0.96135762  0.84204571  0.96129992     0.07100
C574        C  0.97317986  0.84304355  0.01086371    -0.03000
Br575      Br  0.93806143  0.81942408  0.06978862    -0.01500
Br576      Br  0.02734826  0.86128700  0.08529524    -0.01600
Br577      Br  0.97185985  0.83508852  0.85172356    -0.01600
Br578      Br  0.06057445  0.89398667  0.86541089    -0.01500
C579        C  0.07470137  0.02876165  0.94207160    -0.02700
C580        C  0.10665821  0.04206765  0.96951222     0.07000
C581        C  0.12573340  0.08056711  0.98085072    -0.02800
C582        C  0.11086023  0.10441185  0.96990382    -0.02800
C583        C  0.07655157  0.08984898  0.94833535     0.07100
C584        C  0.05978131  0.05267035  0.93148949    -0.03000
Br585      Br  0.01366894  0.03307044  0.89993709    -0.01500
Br586      Br  0.04868413  0.97658304  0.92399301    -0.01600
Br587      Br  0.13538507  0.15630301  0.98919458    -0.01600
Br588      Br  0.17149200  0.10012566  0.01320393    -0.01500
C589        C  0.63506349  0.70653476  0.86210160    -0.02700
C590        C  0.63172083  0.72755472  0.82024236     0.07000
C591        C  0.65804429  0.76672681  0.81228290    -0.02800
C592        C  0.68771206  0.78392807  0.84411029    -0.02800
C593        C  0.69106199  0.76271020  0.88552780     0.07100
C594        C  0.66314337  0.72441160  0.89588870    -0.03000
Br595      Br  0.66238212  0.69564462  0.95671667    -0.01500
Br596      Br  0.60326389  0.65200151  0.87178496    -0.01600
Br597      Br  0.72211233  0.83775829  0.83335246    -0.01600
Br598      Br  0.65300099  0.79782493  0.75943681    -0.01500
C599        C  0.53091410  0.69090384  0.52083286    -0.02700
C600        C  0.50527014  0.66199436  0.55690086     0.07000
C601        C  0.47818487  0.62713701  0.53967830    -0.02800
C602        C  0.47689625  0.62130306  0.48685738    -0.02800
C603        C  0.50215680  0.65032750  0.45097868     0.07100
C604        C  0.52921402  0.68510923  0.46803634    -0.03000
Br605      Br  0.56306752  0.72540320  0.41888319    -0.01500
Br606      Br  0.56701727  0.73948765  0.54341303    -0.01600
Br607      Br  0.44038679  0.57352122  0.46306440    -0.01600
Br608      Br  0.44322654  0.58689040  0.58814541    -0.01500
C609        C  0.52588924  0.68725243  0.02215955    -0.02700
C610        C  0.49993001  0.65756793  0.05711344     0.07000
C611        C  0.47235713  0.62367280  0.03830151    -0.02800
C612        C  0.47123449  0.61942703  0.98501057    -0.02800
C613        C  0.49768312  0.64878596  0.95046302     0.07100
C614        C  0.52471446  0.68282707  0.96910072    -0.03000
Br615      Br  0.55922608  0.72415098  0.92155093    -0.01500
Br616      Br  0.56187767  0.73518512  0.04657487    -0.01600
Br617      Br  0.43281516  0.57389679  0.95881649    -0.01600
Br618      Br  0.43665473  0.58260414  0.08507291    -0.01500
C619        C  0.67600552  0.73160823  0.36248517    -0.02700
C620        C  0.69007386  0.76960458  0.37612323     0.07000
C621        C  0.67548489  0.79148984  0.35494396    -0.02800
C622        C  0.64607580  0.77492664  0.32245695    -0.02800
C623        C  0.63214782  0.73689399  0.30932474     0.07100
C624        C  0.64807151  0.71588073  0.32842337    -0.03000
Br625      Br  0.63256502  0.66559317  0.30589174    -0.01500
Br626      Br  0.69426401  0.70005543  0.39113836    -0.01600
Br627      Br  0.62435218  0.80387496  0.29676785    -0.01600
Br628      Br  0.69712338  0.84453961  0.36806212    -0.01500
C629        C  0.33094690  0.54820000  0.73095127    -0.02700
C630        C  0.35375000  0.58815276  0.73008149     0.07000
C631        C  0.33682916  0.61010540  0.74158886    -0.02800
C632        C  0.30037070  0.59311967  0.76340095    -0.02800
C633        C  0.27751158  0.55334134  0.76551931     0.07100
C634        C  0.29242706  0.53103920  0.74583564    -0.03000
Br635      Br  0.26066482  0.47710302  0.74232051    -0.01500
Br636      Br  0.35279626  0.51732145  0.71379774    -0.01600
Br637      Br  0.28318229  0.62526887  0.79309947    -0.01600
Br638      Br  0.36488584  0.66444313  0.73134508    -0.01500
C639        C  0.05275148  0.33495036  0.91373009    -0.02700
C640        C  0.07788323  0.33893779  0.87164352     0.07000
C641        C  0.08284509  0.30745581  0.86136032    -0.02800
C642        C  0.06131268  0.27224193  0.88991370    -0.02800
C643        C  0.03600056  0.26842579  0.93076273     0.07100
C644        C  0.03265873  0.30012453  0.94350278    -0.03000
Br645      Br  0.99910168  0.29479284  0.00123389    -0.01500
Br646      Br  0.04231362  0.37532175  0.92900763    -0.01600
Br647      Br  0.06490344  0.22831206  0.87139979    -0.01600
Br648      Br  0.11981323  0.31225634  0.80931437    -0.01500
C649        C  0.17492596  0.46415778  0.50872152    -0.02700
C650        C  0.16007346  0.48485565  0.48544719     0.07000
C651        C  0.14725903  0.50499667  0.51522323    -0.02800
C652        C  0.14850880  0.50376676  0.56875165    -0.02800
C653        C  0.16144166  0.48117234  0.59245101     0.07100
C654        C  0.17511127  0.46182924  0.56227521    -0.03000
Br655      Br  0.19557067  0.43346286  0.59417417    -0.01500
Br656      Br  0.19518930  0.43917940  0.46697117    -0.01600
Br657      Br  0.13162865  0.53241279  0.60904267    -0.01600
Br658      Br  0.12837479  0.53450156  0.48230479    -0.01500
C659        C  0.14687055  0.44795844  0.00649447    -0.02700
C660        C  0.13883545  0.47526976  0.98561679     0.07000
C661        C  0.13503167  0.50064004  0.01769353    -0.02800
C662        C  0.13766789  0.49774997  0.07093331    -0.02800
C663        C  0.14491775  0.46968543  0.09237992     0.07100
C664        C  0.15037923  0.44543357  0.05947848    -0.03000
Br665      Br  0.16691835  0.41163136  0.08549545    -0.01500
Br666      Br  0.15542296  0.41553617  0.96163438    -0.01600
Br667      Br  0.13144539  0.53283500  0.11334889    -0.01600
Br668      Br  0.12820451  0.54077553  0.98782162    -0.01500
C669        C  0.29442742  0.51603235  0.27521983    -0.02700
C670        C  0.27611109  0.53099682  0.24703958     0.07000
C671        C  0.29639320  0.55851550  0.20593471    -0.02800
C672        C  0.33534419  0.57580835  0.20008588    -0.02800
C673        C  0.35409568  0.56534169  0.23445164     0.07100
C674        C  0.33324517  0.53353543  0.26966303    -0.03000
Br675      Br  0.35813963  0.51600073  0.31381935    -0.01500
Br676      Br  0.26615801  0.47156051  0.32168569    -0.01600
Br677      Br  0.36315556  0.61684335  0.14894794    -0.01600
Br678      Br  0.27204300  0.57512110  0.15948044    -0.01500
C679        C  0.07065268  0.30739227  0.46658447    -0.02700
C680        C  0.06799192  0.27366648  0.44960944     0.07000
C681        C  0.08865986  0.27583633  0.40370111    -0.02800
C682        C  0.10472251  0.30880296  0.36980086    -0.02800
C683        C  0.10343228  0.34170043  0.38378899     0.07100
C684        C  0.08901720  0.34147138  0.43485095    -0.03000
Br685      Br  0.09056347  0.38595329  0.46236918    -0.01500
Br686      Br  0.04519011  0.30557537  0.53124208    -0.01600
Br687      Br  0.12794336  0.30792676  0.30431066    -0.01600
Br688      Br  0.09284077  0.23212754  0.38640294    -0.01500
C689        C  0.27048611  0.90024315  0.93453860    -0.02700
C690        C  0.24949280  0.88131823  0.89303620     0.07000
C691        C  0.21429398  0.87760383  0.89062682    -0.02800
C692        C  0.20207062  0.89598277  0.92534696    -0.02800
C693        C  0.22520595  0.91936767  0.96196018     0.07100
C694        C  0.25885541  0.92002463  0.96764712    -0.03000
Br695      Br  0.29142371  0.95245671  0.01627227    -0.01500
Br696      Br  0.31741870  0.90334577  0.94367668    -0.01600
Br697      Br  0.15449792  0.89169637  0.92006895    -0.01600
Br698      Br  0.18281210  0.84722107  0.83968913    -0.01500
C699        C  0.21905717  0.68691691  0.78533037    -0.02700
C700        C  0.25392939  0.70475568  0.75742067     0.07000
C701        C  0.25971235  0.68622074  0.71550048    -0.02800
C702        C  0.23410541  0.64765603  0.70895038    -0.02800
C703        C  0.20268624  0.62792081  0.74361661     0.07100
C704        C  0.19322033  0.64889842  0.77742232    -0.03000
Br705      Br  0.14615620  0.62346511  0.81720295    -0.01500
Br706      Br  0.20681516  0.71408003  0.83514637    -0.01600
Br707      Br  0.24426519  0.62037303  0.65713195    -0.01600
Br708      Br  0.30393439  0.71149812  0.66979891    -0.01500
C709        C  0.43799719  0.78474356  0.78592669    -0.02700
C710        C  0.41833403  0.78436248  0.74352530     0.07000
C711        C  0.42278846  0.76809997  0.69890422    -0.02800
C712        C  0.44049384  0.74584248  0.70024878    -0.02800
C713        C  0.45262116  0.73899862  0.74736703     0.07100
C714        C  0.45538302  0.76249268  0.78772509    -0.03000
Br715      Br  0.48278602  0.76429872  0.84576543    -0.01500
Br716      Br  0.43772108  0.81300451  0.84404404    -0.01600
Br717      Br  0.44441360  0.72270111  0.63835825    -0.01600
Br718      Br  0.40194734  0.77394830  0.63774866    -0.01500
C719        C  0.28084370  0.81093577  0.57170083    -0.02700
C720        C  0.31376171  0.83352474  0.59525343     0.07000
C721        C  0.34771510  0.85223669  0.56493533    -0.02800
C722        C  0.34877355  0.84814718  0.51166991    -0.02800
C723        C  0.31596288  0.82521456  0.48825821     0.07100
C724        C  0.28194045  0.80693447  0.51832169    -0.03000
Br725      Br  0.23670775  0.77718803  0.48607190    -0.01500
Br726      Br  0.23447835  0.78360166  0.61295027    -0.01600
Br727      Br  0.39551117  0.87273051  0.47095692    -0.01600
Br728      Br  0.39293168  0.88409178  0.59616876    -0.01500
C729        C  0.28158143  0.80145132  0.01309137    -0.02700
C730        C  0.31546884  0.80897228  0.98824613     0.07000
C731        C  0.34654682  0.81998741  0.01598458    -0.02800
C732        C  0.34413796  0.82405238  0.06886786    -0.02800
C733        C  0.31022751  0.81706472  0.09438384     0.07100
C734        C  0.27886392  0.80561445  0.06609014    -0.03000
Br735      Br  0.23178853  0.79470582  0.09910953    -0.01500
Br736      Br  0.23898841  0.78560912  0.97409454    -0.01600
Br737      Br  0.38874952  0.84206170  0.10418391    -0.01600
Br738      Br  0.39292808  0.83086473  0.98052752    -0.01500
C739        C  0.22734117  0.88374885  0.39940111    -0.02700
C740        C  0.26178385  0.90041631  0.37006785     0.07000
C741        C  0.29000678  0.93618454  0.38195838    -0.02800
C742        C  0.28394607  0.95542702  0.42173982    -0.02800
C743        C  0.24803885  0.94135920  0.44668464     0.07100
C744        C  0.22004080  0.90460894  0.43648657    -0.03000
Br745      Br  0.17130376  0.88372225  0.47059063    -0.01500
Br746      Br  0.18965756  0.83304079  0.38675371    -0.01600
Br747      Br  0.32528257  0.00308844  0.43895247    -0.01600
Br748      Br  0.33734601  0.95974671  0.34311050    -0.01500
C749        C  0.24673368  0.68479216  0.22190038    -0.02700
C750        C  0.24743774  0.69758358  0.27262465     0.07000
C751        C  0.21895882  0.67256140  0.30977116    -0.02800
C752        C  0.19550936  0.63428368  0.29944195    -0.02800
C753        C  0.19979906  0.62032434  0.25227412     0.07100
C754        C  0.22269955  0.64633704  0.21223630    -0.03000
Br755      Br  0.22202903  0.62792604  0.14496804    -0.01500
Br756      Br  0.27918012  0.71751260  0.16456905    -0.01600
Br757      Br  0.15971255  0.59902082  0.35214544    -0.01600
Br758      Br  0.21126408  0.68956668  0.37529467    -0.01500
C759        C  0.40887558  0.75258971  0.20868218    -0.02700
C760        C  0.40803587  0.77117429  0.25289643     0.07000
C761        C  0.43141970  0.77428642  0.29169654    -0.02800
C762        C  0.44878120  0.75205318  0.29178670    -0.02800
C763        C  0.44368941  0.72742693  0.25207790     0.07100
C764        C  0.42838651  0.73227606  0.20719255    -0.03000
Br765      Br  0.43454286  0.71275263  0.14324077    -0.01500
Br766      Br  0.38070384  0.75175567  0.15246589    -0.01600
Br767      Br  0.48000760  0.75605006  0.34591132    -0.01600
Br768      Br  0.43782143  0.80755899  0.34646836    -0.01500
C769        C  0.57906615  0.55872197  0.65353156    -0.02700
C770        C  0.59115895  0.54480457  0.69369848     0.07000
C771        C  0.57431215  0.54117319  0.74390729    -0.02800
C772        C  0.55514817  0.56105999  0.75571762    -0.02800
C773        C  0.55182787  0.58386277  0.71697112     0.07100
C774        C  0.55980960  0.57858752  0.66510688    -0.03000
Br775      Br  0.54494052  0.59883716  0.60924468    -0.01500
Br776      Br  0.58937008  0.55159511  0.58309035    -0.01600
Br777      Br  0.53539174  0.55811430  0.82514681    -0.01600
Br778      Br  0.57806624  0.50942268  0.79708387    -0.01500
C779        C  0.71439975  0.68582364  0.54285845    -0.02700
C780        C  0.74985370  0.70499759  0.51515993     0.07000
C781        C  0.77532745  0.69245768  0.52520523    -0.02800
C782        C  0.76575451  0.66242303  0.56300266    -0.02800
C783        C  0.73142704  0.64573488  0.59273241     0.07100
C784        C  0.70659486  0.65881795  0.58351706    -0.03000
Br785      Br  0.66202878  0.64106232  0.62799335    -0.01500
Br786      Br  0.67484704  0.69515627  0.52525411    -0.01600
Br787      Br  0.80117002  0.64664962  0.57809325    -0.01600
Br788      Br  0.82381461  0.71698959  0.48937916    -0.01500
C789        C  0.64017655  0.47231768  0.89705257    -0.02700
C790        C  0.67173292  0.50221915  0.86901635     0.07000
C791        C  0.70338613  0.52575242  0.89497535    -0.02800
C792        C  0.70278603  0.52043834  0.94833241    -0.02800
C793        C  0.67066179  0.49211627  0.97608934     0.07100
C794        C  0.63954547  0.46793574  0.95064739    -0.03000
Br795      Br  0.59566853  0.42947343  0.98994279    -0.01500
Br796      Br  0.59704342  0.43758054  0.86363843    -0.01600
Br797      Br  0.74603161  0.55203282  0.98375112    -0.01600
Br798      Br  0.74869766  0.56426637  0.85807646    -0.01500
C799        C  0.71502337  0.54227465  0.44525393    -0.02700
C800        C  0.68447436  0.51225500  0.47369516     0.07000
C801        C  0.65431933  0.48573072  0.44877113    -0.02800
C802        C  0.65404225  0.48950721  0.39529638    -0.02800
C803        C  0.68480610  0.51961650  0.36581545     0.07100
C804        C  0.71556983  0.54583390  0.39140092    -0.03000
Br805      Br  0.75965629  0.58562529  0.35376893    -0.01500
Br806      Br  0.75624486  0.57818733  0.48050746    -0.01600
Br807      Br  0.60987753  0.45384889  0.36459646    -0.01600
Br808      Br  0.61297556  0.44417048  0.48879237    -0.01500
C809        C  0.56750444  0.57121494  0.25803556    -0.02700
C810        C  0.55924513  0.58990204  0.21899820     0.07000
C811        C  0.56467417  0.58261493  0.16736305    -0.02800
C812        C  0.58593084  0.56509097  0.15459380    -0.02800
C813        C  0.60109150  0.55369050  0.19358972     0.07100
C814        C  0.58808631  0.55295895  0.24526522    -0.03000
Br815      Br  0.59902225  0.52744651  0.29919642    -0.01500
Br816      Br  0.55241119  0.57175085  0.32897940    -0.01600
Br817      Br  0.59530466  0.55872329  0.08370971    -0.01600
Br818      Br  0.54241661  0.59604306  0.11375428    -0.01500
C819        C  0.72539050  0.63426843  0.01597776    -0.02700
C820        C  0.74154124  0.63636691  0.06332163     0.07000
C821        C  0.77631178  0.66830521  0.06916759    -0.02800
C822        C  0.79265971  0.69848455  0.03082572    -0.02800
C823        C  0.77378641  0.69887399  0.98772604     0.07100
C824        C  0.74196976  0.66509308  0.97826392    -0.03000
Br825      Br  0.72160290  0.66186315  0.91313324    -0.01500
Br826      Br  0.67871460  0.59125291  0.00337185    -0.01600
Br827      Br  0.84117270  0.74027277  0.03737097    -0.01600
Br828      Br  0.80192794  0.67130977  0.12961818    -0.01500
C829        C  0.55210612  0.29779640  0.66939556    -0.02700
C830        C  0.56579757  0.27913030  0.70050020     0.07000
C831        C  0.58941584  0.29968484  0.73875278    -0.02800
C832        C  0.60116782  0.33862399  0.74306028    -0.02800
C833        C  0.59119306  0.35811068  0.70782696     0.07100
C834        C  0.56518991  0.33714913  0.67262125    -0.03000
Br835      Br  0.54951060  0.36343574  0.62633436    -0.01500
Br836      Br  0.51559456  0.26984097  0.62205178    -0.01600
Br837      Br  0.63369770  0.36635106  0.79448622    -0.01600
Br838      Br  0.61015397  0.27682096  0.78154420    -0.01500
C839        C  0.41389306  0.96666560  0.74851271    -0.02700
C840        C  0.38041189  0.95206251  0.77973991     0.07000
C841        C  0.36912176  0.97769931  0.79698366    -0.02800
C842        C  0.39013716  0.01678866  0.78314170    -0.02800
C843        C  0.42294167  0.03142160  0.74993867     0.07100
C844        C  0.43522011  0.00620808  0.73389892    -0.03000
Br845      Br  0.48168351  0.02602477  0.69373887    -0.01500
Br846      Br  0.42972916  0.93199478  0.72482858    -0.01600
Br847      Br  0.37107630  0.04921079  0.80793194    -0.01600
Br848      Br  0.32233918  0.95952774  0.83509026    -0.01500
C849        C  0.35312608  0.06392184  0.62490099    -0.02700
C850        C  0.36948961  0.10218396  0.63746858     0.07000
C851        C  0.35900315  0.12649352  0.61251131    -0.02800
C852        C  0.33314176  0.11290839  0.57469135    -0.02800
C853        C  0.31729905  0.07473659  0.56153549     0.07100
C854        C  0.32756663  0.05039286  0.58711827    -0.03000
Br855      Br  0.30718494  0.99803432  0.56999823    -0.01500
Br856      Br  0.36605758  0.02967206  0.65867380    -0.01600
Br857      Br  0.31821933  0.14611682  0.54257248    -0.01600
Br858      Br  0.37936860  0.17826104  0.63163458    -0.01500
C859        C  0.48873402  0.18870149  0.92692432    -0.02700
C860        C  0.49762289  0.16504623  0.89851113     0.07000
C861        C  0.50852593  0.14114967  0.92342717    -0.02800
C862        C  0.50844576  0.13936217  0.97719598    -0.02800
C863        C  0.49841947  0.16223306  0.00611871     0.07100
C864        C  0.48984436  0.18796606  0.98043787    -0.03000
Br865      Br  0.47971699  0.22289612  0.01721407    -0.01500
Br866      Br  0.47641931  0.22322838  0.89185536    -0.01600
Br867      Br  0.52447147  0.10736445  0.01057364    -0.01600
Br868      Br  0.52281660  0.11003640  0.88415279    -0.01500
C869        C  0.51676829  0.13610731  0.41845897    -0.02700
C870        C  0.48791830  0.14039935  0.39968757     0.07000
C871        C  0.46271567  0.14389941  0.43392347    -0.02800
C872        C  0.46820464  0.14648719  0.48634562    -0.02800
C873        C  0.49742088  0.14299692  0.50537989     0.07100
C874        C  0.52129139  0.13702901  0.47143370    -0.03000
Br875      Br  0.55990514  0.12981477  0.49766795    -0.01500
Br876      Br  0.54898296  0.12740503  0.37189105    -0.01600
Br877      Br  0.43791440  0.15898853  0.53040728    -0.01600
Br878      Br  0.42119639  0.14647580  0.40881841    -0.01500
C879        C  0.57333634  0.33963739  0.26796447    -0.02700
C880        C  0.57915672  0.36351283  0.22419167     0.07000
C881        C  0.55739989  0.34765017  0.18260991    -0.02800
C882        C  0.53570120  0.30791468  0.18083641    -0.02800
C883        C  0.53696704  0.28356958  0.21942856     0.07100
C884        C  0.55170540  0.29959068  0.26610705    -0.03000
Br885      Br  0.54561126  0.26781002  0.32642507    -0.01500
Br886      Br  0.59774455  0.36139482  0.32834522    -0.01600
Br887      Br  0.50443572  0.28688896  0.12538835    -0.01600
Br888      Br  0.56020906  0.38048154  0.12543841    -0.01500
C889        C  0.40322150  0.95878117  0.19436774    -0.02700
C890        C  0.39462842  0.94302087  0.24630607     0.07000
C891        C  0.41690741  0.96642941  0.28353882    -0.02800
C892        C  0.43959079  0.00609009  0.27173957    -0.02800
C893        C  0.44051987  0.02272838  0.22280659     0.07100
C894        C  0.42445444  0.99851857  0.18326952    -0.03000
Br895      Br  0.42723224  0.01995889  0.11512827    -0.01500
Br896      Br  0.38716167  0.92704569  0.13684180    -0.01600
Br897      Br  0.46771244  0.03839484  0.32379369    -0.01600
Br898      Br  0.41694969  0.94502908  0.35039809    -0.01500
C899        C  0.33141983  0.05068889  0.15106403    -0.02700
C900        C  0.36029329  0.08853752  0.14228361     0.07000
C901        C  0.36036180  0.11059793  0.09939406    -0.02800
C902        C  0.33301810  0.09461712  0.06414840    -0.02800
C903        C  0.30395235  0.05681961  0.07292216     0.07100
C904        C  0.30309638  0.03513929  0.11714410    -0.03000
Br905      Br  0.26405508  0.98322805  0.13064663    -0.01500
Br906      Br  0.33165337  0.01941704  0.20812842    -0.01600
Br907      Br  0.33503950  0.12496139  0.00455674    -0.01600
Br908      Br  0.39691122  0.16369763  0.09098616    -0.01500
C909        C  0.89209277  0.21938019  0.55460964    -0.02700
C910        C  0.92486836  0.21993105  0.56671201     0.07000
C911        C  0.93874700  0.23217963  0.61493661    -0.02800
C912        C  0.91996390  0.24326604  0.65072503    -0.02800
C913        C  0.88800374  0.24409643  0.63785241     0.07100
C914        C  0.87370383  0.23127573  0.59010237    -0.03000
Br915      Br  0.82766443  0.22813771  0.57436648    -0.01500
Br916      Br  0.87173654  0.20155665  0.49000252    -0.01600
Br917      Br  0.93939958  0.25890486  0.71659631    -0.01600
Br918      Br  0.98541399  0.23717602  0.63122350    -0.01500
C919        C  0.74142501  0.44182654  0.75920850    -0.02700
C920        C  0.74470730  0.45601642  0.70744440     0.07000
C921        C  0.77402542  0.45883609  0.67437303    -0.02800
C922        C  0.79317111  0.43990265  0.68868663    -0.02800
C923        C  0.78288613  0.41765919  0.73549039     0.07100
C924        C  0.75886007  0.42072471  0.77208457    -0.03000
Br925      Br  0.74697633  0.39262463  0.83760846    -0.01500
Br926      Br  0.71516882  0.45185996  0.81401794    -0.01600
Br927      Br  0.83107139  0.44095032  0.64177406    -0.01600
Br928      Br  0.78879962  0.48892060  0.60990879    -0.01500
C929        C  0.69992173  0.21670112  0.70071817    -0.02700
C930        C  0.71341039  0.24548345  0.73594031     0.07000
C931        C  0.68942277  0.24177533  0.77927050    -0.02800
C932        C  0.65134132  0.21427560  0.78104521    -0.02800
C933        C  0.63696148  0.19315350  0.73804327     0.07100
C934        C  0.66177661  0.19153681  0.70072762    -0.03000
Br935      Br  0.64294506  0.15626656  0.64744330    -0.01500
Br936      Br  0.73354305  0.21148362  0.65237858    -0.01600
Br937      Br  0.61893504  0.20519672  0.84164357    -0.01600
Br938      Br  0.70700748  0.27511031  0.83468415    -0.01500
C939        C  0.98608342  0.40255000  0.68317593    -0.02700
C940        C  0.95730371  0.39424312  0.72026451     0.07000
C941        C  0.96621385  0.40954432  0.76884836    -0.02800
C942        C  0.00285166  0.42592363  0.78371233    -0.02800
C943        C  0.03131932  0.42900960  0.74863812     0.07100
C944        C  0.02293009  0.42175338  0.69637792    -0.03000
Br945      Br  0.06106402  0.43725278  0.64127952    -0.01500
Br946      Br  0.97459722  0.38357447  0.61580900    -0.01600
Br947      Br  0.01281506  0.44223739  0.85237287    -0.01600
Br948      Br  0.92792160  0.40776775  0.81512582    -0.01500
C949        C  0.86738857  0.31584778  0.93193792    -0.02700
C950        C  0.85126152  0.33410703  0.90436331     0.07000
C951        C  0.84500433  0.36132696  0.92897555    -0.02800
C952        C  0.84997206  0.36606831  0.98172515    -0.02800
C953        C  0.86436681  0.34633316  0.00918776     0.07100
C954        C  0.87658532  0.32451066  0.98259926    -0.03000
Br955      Br  0.90651782  0.30709582  0.01501755    -0.01500
Br956      Br  0.87411282  0.27591439  0.90336648    -0.01600
Br957      Br  0.83798628  0.40054666  0.01663625    -0.01600
Br958      Br  0.83178759  0.39381614  0.89088868    -0.01500
C959        C  0.80650886  0.29914783  0.43280919    -0.02700
C960        C  0.83803570  0.32483612  0.40145675     0.07000
C961        C  0.86930168  0.35246212  0.42418075    -0.02800
C962        C  0.86859524  0.35507540  0.47806980    -0.02800
C963        C  0.83657105  0.32969777  0.50982520     0.07100
C964        C  0.80580502  0.30113510  0.48649036    -0.03000
Br965      Br  0.76274516  0.26256653  0.52717312    -0.01500
Br966      Br  0.76450370  0.26001907  0.40171617    -0.01600
Br967      Br  0.91108503  0.39469231  0.50737288    -0.01600
Br968      Br  0.91264504  0.38772567  0.38100271    -0.01500
C969        C  0.87207095  0.20022074  0.05300755    -0.02700
C970        C  0.89465280  0.18575544  0.07029875     0.07000
C971        C  0.89627311  0.18229187  0.12414385    -0.02800
C972        C  0.88455812  0.20174740  0.15786626    -0.02800
C973        C  0.86762160  0.22188362  0.13890432     0.07100
C974        C  0.85789738  0.21726265  0.08757165    -0.03000
Br975      Br  0.82243538  0.23142789  0.06631858    -0.01500
Br976      Br  0.85917517  0.19588879  0.98308933    -0.01600
Br977      Br  0.89283438  0.20143431  0.22958274    -0.01600
Br978      Br  0.91013949  0.14695739  0.15252907    -0.01500
C979        C  0.80483081  0.45656455  0.19155568    -0.02700
C980        C  0.79582444  0.42779916  0.23079494     0.07000
C981        C  0.76435270  0.41683297  0.26448132    -0.02800
C982        C  0.73870088  0.42884762  0.25320719    -0.02800
C983        C  0.74444874  0.45199174  0.20780649     0.07100
C984        C  0.77907184  0.46809480  0.17946530    -0.03000
Br985      Br  0.79121260  0.50561073  0.12365579    -0.01500
Br986      Br  0.85093315  0.47634557  0.14997611    -0.01600
Br987      Br  0.69410495  0.40950313  0.29768319    -0.01600
Br988      Br  0.75374582  0.38071766  0.32153882    -0.01500
C989        C  0.69724638  0.23983312  0.23320743    -0.02700
C990        C  0.71533296  0.27854811  0.21510168     0.07000
C991        C  0.69420273  0.29660253  0.20870827    -0.02800
C992        C  0.65587365  0.27655722  0.22022140    -0.02800
C993        C  0.63705798  0.23689018  0.23214696     0.07100
C994        C  0.65803480  0.21864535  0.23966772    -0.03000
Br995      Br  0.63302315  0.16437604  0.25401646    -0.01500
Br996      Br  0.72594196  0.21534822  0.24528848    -0.01600
Br997      Br  0.62886685  0.30367884  0.21629141    -0.01600
Br998      Br  0.71685083  0.34832282  0.18011742    -0.01500
C999        C  0.96810544  0.35519494  0.29821900    -0.02700
C1000       C  0.95752720  0.36777932  0.25338245     0.07000
C1001       C  0.98282529  0.40485535  0.23110588    -0.02800
C1002       C  0.01872470  0.42588749  0.24857027    -0.02800
C1003       C  0.03006374  0.41115502  0.28891438     0.07100
C1004       C  0.00390576  0.37677201  0.31516201    -0.03000
Br1005     Br  0.01900555  0.35723155  0.37171888    -0.01500
Br1006     Br  0.93541216  0.30813007  0.33870603    -0.01600
Br1007     Br  0.05425659  0.47441396  0.21504917    -0.01600
Br1008     Br  0.97028385  0.42740631  0.17518048    -0.01500
loop_ 
_geom_bond_atom_site_label_1 
_geom_bond_atom_site_label_2 
_geom_bond_distance 
_geom_bond_site_symmetry_2 
_ccdc_geom_bond_type 
O1           Ni7   1.911       .  S
O1           C22   1.271       .  A
O2          Ni25   1.920       .  S
O2           C11   1.279       .  A
O3           Ni7   1.872       .  S
O3          Ni25   1.881       .  S
O3          Ni19   1.890       .  S
O3           H26   0.967       .  S
C4           O21   1.275       .  A
C4           O13   1.281       .  A
C4          C973   1.506       .  S
O5          Ni24   1.944       .  S
O5           C11   1.278       .  A
O6          Ni24   1.910       .  S
O6            C8   1.265       .  A
Ni7          O10   1.899       .  S
Ni7          O12   1.924       .  S
C8           O18   1.288       .  A
C8         C1000   1.528       .  S
O9          Ni25   1.962       .  S
O9           C15   1.297       .  A
O10          C15   1.277       .  A
C11         C960   1.484       .  S
O12          C14   1.271       .  A
O13         Ni24   1.950       .  S
C14          O20   1.269       .  A
C14         C990   1.488       .  S
C15         C980   1.488       .  S
H16          O17   0.965       .  S
O17         Ni25   1.939       .  S
O17         Ni19   1.897       .  S
O17         Ni24   1.881       .  S
O18         Ni19   1.977       .  S
Ni19         O23   1.922       .  S
Ni19         O21   1.932       .  S
O20         Ni25   1.935       .  S
C22          O23   1.278       .  A
C22         C953   1.480       .  S
O27         Ni33   1.936       .  S
O27          C48   1.277       .  A
O28         Ni51   1.938       .  S
O28          C37   1.278       .  A
O29         Ni33   1.889       .  S
O29         Ni51   1.903       .  S
O29         Ni45   1.885       .  S
O29          H52   0.966       .  S
C30          O47   1.267       .  A
C30          O39   1.275       .  A
C30         C913   1.484       .  S
O31         Ni50   1.910       .  S
O31          C37   1.266       .  A
O32         Ni50   1.898       .  S
O32          C34   1.268       .  A
Ni33         O36   1.915       .  S
Ni33         O38   1.910       .  S
C34          O44   1.285       .  A
C34         C940   1.488       .  S
O35         Ni51   1.941       .  S
O35          C41   1.283       .  A
O36          C41   1.269       .  A
C37         C950   1.495       .  S
O38          C40   1.273       .  A
O39         Ni50   1.933       .  S
C40          O46   1.278       .  A
C40         C930   1.502       .  S
C41         C923   1.474       .  S
H42          O43   0.965       .  S
O43         Ni51   1.931       .  S
O43         Ni45   1.909       .  S
O43         Ni50   1.891       .  S
O44         Ni45   1.963       .  S
Ni45         O49   1.918       .  S
Ni45         O47   1.906       .  S
O46         Ni51   1.963       .  S
C48          O49   1.278       .  A
C48         C963   1.501       .  S
O53         Ni59   1.915       .  S
O53          C74   1.269       .  A
O54         Ni77   1.902       .  S
O54          C63   1.271       .  A
O55         Ni59   1.892       .  S
O55         Ni77   1.885       .  S
O55         Ni71   1.893       .  S
O55          H78   0.967       .  S
C56          O73   1.265       .  A
C56          O65   1.278       .  A
C56         C900   1.489       .  S
O57         Ni76   1.928       .  S
O57          C63   1.273       .  A
O58         Ni76   1.891       .  S
O58          C60   1.268       .  A
Ni59         O62   1.905       .  S
Ni59         O64   1.918       .  S
C60          O70   1.291       .  A
C60         C893   1.494       .  S
O61         Ni77   1.959       .  S
O61          C67   1.291       .  A
O62          C67   1.276       .  A
C63         C870   1.468       .  S
O64          C66   1.270       .  A
O65         Ni76   1.947       .  S
C66          O72   1.269       .  A
C66         C883   1.507       .  S
C67         C993   1.489       .  S
H68          O69   0.966       .  S
O69         Ni77   1.944       .  S
O69         Ni71   1.905       .  S
O69         Ni76   1.901       .  S
O70         Ni71   1.974       .  S
Ni71         O75   1.910       .  S
Ni71         O73   1.902       .  S
O72         Ni77   1.936       .  S
C74          O75   1.274       .  A
C74         C863   1.478       .  S
O79         Ni85   1.939       .  S
O79         C100   1.275       .  A
O80        Ni103   1.894       .  S
O80          C89   1.266       .  A
O81         Ni85   1.908       .  S
O81        Ni103   1.889       .  S
O81         Ni97   1.882       .  S
O81         H104   0.967       .  S
C82          O99   1.254       .  A
C82          O91   1.274       .  A
C82         C850   1.494       .  S
O83        Ni102   1.917       .  S
O83          C89   1.272       .  A
O84        Ni102   1.882       .  S
O84          C86   1.260       .  A
Ni85         O88   1.924       .  S
Ni85         O90   1.927       .  S
C86          O96   1.295       .  A
C86         C843   1.497       .  S
O87        Ni103   1.935       .  S
O87          C93   1.281       .  A
O88          C93   1.277       .  A
C89         C860   1.467       .  S
O90          C92   1.273       .  A
O91        Ni102   1.974       .  S
C92          O98   1.270       .  A
C92         C830   1.499       .  S
C93         C933   1.489       .  S
H94          O95   0.966       .  S
O95        Ni103   1.954       .  S
O95         Ni97   1.906       .  S
O95        Ni102   1.908       .  S
O96         Ni97   2.005       .  S
Ni97        O101   1.897       .  S
Ni97         O99   1.892       .  S
O98        Ni103   1.933       .  S
C100        O101   1.268       .  A
C100        C873   1.474       .  S
O105       Ni111   1.945       .  S
O105        C126   1.278       .  A
O106       Ni129   1.891       .  S
O106        C115   1.267       .  A
O107       Ni111   1.899       .  S
O107       Ni129   1.865       .  S
O107       Ni123   1.861       .  S
O107        H130   0.967       .  S
C108        O125   1.253       .  A
C108        O117   1.276       .  A
C108        C820   1.508       .  S
O109       Ni128   1.939       .  S
O109        C115   1.277       .  A
O110       Ni128   1.885       .  S
O110        C112   1.271       .  A
Ni111       O114   1.928       .  S
Ni111       O116   1.933       .  S
C112        O122   1.294       .  A
C112        C813   1.504       .  S
O113       Ni129   1.951       .  S
O113        C119   1.289       .  A
O114        C119   1.278       .  A
C115        C803   1.492       .  S
O116        C118   1.274       .  A
O117       Ni128   1.966       .  S
C118        O124   1.266       .  A
C118        C983   1.502       .  S
C119        C880   1.490       .  S
H120        O121   0.966       .  S
O121       Ni129   1.964       .  S
O121       Ni123   1.916       .  S
O121       Ni128   1.925       .  S
O122       Ni123   1.986       .  S
Ni123       O127   1.881       .  S
Ni123       O125   1.891       .  S
O124       Ni129   1.930       .  S
C126        O127   1.266       .  A
C126        C793   1.463   1_554  S
O131       Ni137   1.941       .  S
O131        C152   1.275       .  A
O132       Ni155   1.902       .  S
O132        C141   1.270       .  A
O133       Ni137   1.899       .  S
O133       Ni155   1.879       .  S
O133       Ni149   1.873       .  S
O133        H156   0.967       .  S
C134        O151   1.254       .  A
C134        O143   1.272       .  A
C134        C783   1.493       .  S
O135       Ni154   1.916       .  S
O135        C141   1.272       .  A
O136       Ni154   1.877       .  S
O136        C138   1.269       .  A
Ni137       O140   1.918       .  S
Ni137       O142   1.930       .  S
C138        O148   1.297       .  A
C138        C770   1.507       .  S
O139       Ni155   1.948       .  S
O139        C145   1.290       .  A
O140        C145   1.278       .  A
C141        C790   1.481       .  S
O142        C144   1.273       .  A
O143       Ni154   1.954       .  S
C144        O150   1.262       .  A
C144        C920   1.506       .  S
C145        C833   1.483       .  S
H146        O147   0.966       .  S
O147       Ni155   1.962       .  S
O147       Ni149   1.901       .  S
O147       Ni154   1.913       .  S
O148       Ni149   1.997       .  S
Ni149       O153   1.890       .  S
Ni149       O151   1.897       .  S
O150       Ni155   1.915       .  S
C152        O153   1.266       .  A
C152        C800   1.468       .  S
O157       Ni163   1.953       .  S
O157        C178   1.280       .  A
O158       Ni181   1.891       .  S
O158        C167   1.268       .  A
O159       Ni163   1.894       .  S
O159       Ni181   1.873       .  S
O159       Ni175   1.857       .  S
O159        H182   0.966       .  S
C160        O177   1.248       .  A
C160        O169   1.273       .  A
C160        C740   1.482       .  S
O161       Ni180   1.929       .  S
O161        C167   1.276       .  A
O162       Ni180   1.875       .  S
O162        C164   1.266       .  A
Ni163       O166   1.923       .  S
Ni163       O168   1.933       .  S
C164        O174   1.300       .  A
C164        C890   1.521       .  S
O165       Ni181   1.934       .  S
O165        C171   1.286       .  A
O166        C171   1.281       .  A
C167        C733   1.481       .  S
O168        C170   1.274       .  A
O169       Ni180   1.962       .  S
C170        O176   1.264       .  A
C170        C750   1.515       .  S
C171        C760   1.480       .  S
H172        O173   0.966       .  S
O173       Ni181   1.949       .  S
O173       Ni175   1.900       .  S
O173       Ni180   1.916       .  S
O174       Ni175   2.007       .  S
Ni175       O179   1.895       .  S
Ni175       O177   1.882       .  S
O176       Ni181   1.921       .  S
C178        O179   1.268       .  A
C178        C723   1.481       .  S
O183       Ni189   1.945       .  S
O183        C204   1.274       .  A
O184       Ni207   1.903       .  S
O184        C193   1.271       .  A
O185       Ni189   1.907       .  S
O185       Ni207   1.878       .  S
O185       Ni201   1.863       .  S
O185        H208   0.971       .  S
C186        O203   1.250       .  A
C186        O195   1.279       .  A
C186        C690   1.501       .  S
O187       Ni206   1.942       .  S
O187        C193   1.279       .  A
O188       Ni206   1.893       .  S
O188        C190   1.271       .  A
Ni189       O192   1.922       .  S
Ni189       O194   1.923       .  S
C190        O200   1.296       .  A
C190        C840   1.492       .  S
O191       Ni207   1.947       .  S
O191        C197   1.288       .  A
O192        C197   1.276       .  A
C193        C720   1.483       .  S
O194        C196   1.272       .  A
O195       Ni206   1.975       .  S
C196        O202   1.269       .  A
C196        C700   1.494       .  S
C197        C710   1.485       .  S
H198        O199   0.949       .  S
O199       Ni207   1.962       .  S
O199       Ni201   1.908       .  S
O199       Ni206   1.913       .  S
O200       Ni201   1.996       .  S
Ni201       O205   1.875       .  S
Ni201       O203   1.885       .  S
O202       Ni207   1.936       .  S
C204        O205   1.261       .  A
C204        C730   1.462       .  S
O209       Ni215   1.924       .  S
O209        C230   1.271       .  A
O210       Ni233   1.901       .  S
O210        C219   1.269       .  A
O211       Ni215   1.908       .  S
O211       Ni233   1.879       .  S
O211       Ni227   1.870       .  S
O211        H234   0.967       .  S
C212        O229   1.255       .  A
C212        O221   1.278       .  A
C212        C683   1.513       .  S
O213       Ni232   1.936       .  S
O213        C219   1.276       .  A
O214       Ni232   1.880       .  S
O214        C216   1.267       .  A
Ni215       O218   1.910       .  S
Ni215       O220   1.913       .  S
C216        O226   1.295       .  A
C216       C1003   1.491       .  S
O217       Ni233   1.956       .  S
O217        C223   1.287       .  A
O218        C223   1.268       .  A
C219        C663   1.489       .  S
O220        C222   1.270       .  A
O221       Ni232   1.964       .  S
C222        O228   1.272       .  A
C222        C670   1.495       .  S
C223        C753   1.480       .  S
H224        O225   0.965       .  S
O225       Ni233   1.962       .  S
O225       Ni227   1.921       .  S
O225       Ni232   1.920       .  S
O226       Ni227   1.990       .  S
Ni227       O231   1.897       .  S
Ni227       O229   1.891       .  S
O228       Ni233   1.947       .  S
C230        O231   1.269       .  A
C230        C650   1.461       .  S
O235       Ni241   1.922       .  S
O235        C256   1.274       .  A
O236       Ni259   1.893       .  S
O236        C245   1.265       .  A
O237       Ni241   1.882       .  S
O237       Ni259   1.868       .  S
O237       Ni253   1.873       .  S
O237        H260   0.967       .  S
C238        O255   1.259       .  A
C238        O247   1.270       .  A
C238        C640   1.505       .  S
O239       Ni258   1.919       .  S
O239        C245   1.272       .  A
O240       Ni258   1.881       .  S
O240        C242   1.269       .  A
Ni241       O244   1.904       .  S
Ni241       O246   1.930       .  S
C242        O252   1.299       .  A
C242        C943   1.515       .  S
O243       Ni259   1.953       .  S
O243        C249   1.291       .  A
O244        C249   1.278       .  A
C245        C653   1.469       .  S
O246        C248   1.272       .  A
O247       Ni258   1.939       .  S
C248        O254   1.267       .  A
C248        C633   1.494       .  S
C249        C703   1.482       .  S
H250        O251   0.966       .  S
O251       Ni259   1.967       .  S
O251       Ni253   1.920       .  S
O251       Ni258   1.918       .  S
O252       Ni253   1.996       .  S
Ni253       O257   1.912       .  S
Ni253       O255   1.902       .  S
O254       Ni259   1.928       .  S
C256        O257   1.277       .  A
C256        C660   1.472       .  S
O261       Ni267   1.928       .  S
O261        C282   1.272       .  A
O262       Ni285   1.916       .  S
O262        C271   1.273       .  A
O263       Ni267   1.891       .  S
O263       Ni285   1.891       .  S
O263       Ni279   1.888       .  S
O263        H286   0.967       .  S
C264        O281   1.265       .  A
C264        O273   1.273       .  A
C264        C623   1.489       .  S
O265       Ni284   1.922       .  S
O265        C271   1.272       .  A
O266       Ni284   1.907       .  S
O266        C268   1.273       .  A
Ni267       O270   1.914       .  S
Ni267       O272   1.913       .  S
C268        O278   1.287       .  A
C268        C810   1.502       .  S
O269       Ni285   1.952       .  S
O269        C275   1.290       .  A
O270        C275   1.277       .  A
C271        C610   1.481       .  S
O272        C274   1.270       .  A
O273       Ni284   1.945       .  S
C274        O280   1.266       .  A
C274        C763   1.495       .  S
C275        C673   1.488       .  S
H276        O277   0.966       .  S
O277       Ni285   1.947       .  S
O277       Ni279   1.909       .  S
O277       Ni284   1.904       .  S
O278       Ni279   1.961       .  S
Ni279       O283   1.909       .  S
Ni279       O281   1.905       .  S
O280       Ni285   1.924       .  S
C282        O283   1.273       .  A
C282        C603   1.472       .  S
O287       Ni293   1.920       .  S
O287        C308   1.270       .  A
O288       Ni311   1.913       .  S
O288        C297   1.274       .  A
O289       Ni293   1.888       .  S
O289       Ni311   1.885       .  S
O289       Ni305   1.885       .  S
O289        H312   0.966       .  S
C290        O307   1.262       .  A
C290        O299   1.275       .  A
C290        C590   1.507       .  S
O291       Ni310   1.923       .  S
O291        C297   1.274       .  A
O292       Ni310   1.898       .  S
O292        C294   1.271       .  A
Ni293       O296   1.898       .  S
Ni293       O298   1.925       .  S
C294        O304   1.292       .  A
C294        C773   1.507       .  S
O295       Ni311   1.976       .  S
O295        C301   1.296       .  A
O296        C301   1.275       .  A
C297        C600   1.479       .  S
O298        C300   1.273       .  A
O299       Ni310   1.950       .  S
C300        O306   1.266       .  A
C300        C713   1.507       .  S
C301        C630   1.493       .  S
H302        O303   0.966       .  S
O303       Ni311   1.960       .  S
O303       Ni305   1.907       .  S
O303       Ni310   1.908       .  S
O304       Ni305   1.974       .  S
Ni305       O309   1.912       .  S
Ni305       O307   1.899       .  S
O306       Ni311   1.926       .  S
C308        O309   1.273       .  A
C308        C613   1.470       .  S
O313       Ni319   1.949       .  S
O313        C334   1.280       .  A
O314       Ni337   1.916       .  S
O314        C323   1.275       .  A
O315       Ni319   1.885       .  S
O315       Ni337   1.869   1_554  S
O315       Ni331   1.858       .  S
O315        H338   0.966       .  S
C316        O333   1.252       .  A
C316        O325   1.271   1_554  A
C316        C903   1.493       .  S
O317       Ni336   1.923       .  S
O317        C323   1.275   1_545  A
O318       Ni336   1.872   1_565  S
O318        C320   1.269       .  A
Ni319       O322   1.921       .  S
Ni319       O324   1.926   1_565  S
C320        O330   1.301   1_556  A
C320        C693   1.487       .  S
O321       Ni337   1.946       .  S
O321        C327   1.291       .  A
O322        C327   1.280   1_554  A
C323        C550   1.481       .  S
O324        C326   1.273   1_554  A
O325       Ni336   1.961       .  S
C326        O332   1.268   1_545  A
C326        C580   1.486       .  S
C327        C570   1.495       .  S
H328        O329   0.966       .  S
O329       Ni337   1.966   1_545  S
O329       Ni331   1.903   1_546  S
O329       Ni336   1.915       .  S
O330       Ni331   2.002       .  S
Ni331       O335   1.890       .  S
Ni331       O333   1.888   1_565  S
O332       Ni337   1.930       .  S
C334        O335   1.268       .  A
C334        C560   1.480       .  S
O339       Ni345   1.927   1_545  S
O339        C360   1.274   1_545  A
O340       Ni363   1.901       .  S
O340        C349   1.269   1_565  A
O341       Ni345   1.877       .  S
O341       Ni363   1.859       .  S
O341       Ni357   1.873   1_565  S
O341        H364   0.967       .  S
C342        O359   1.256       .  A
C342        O351   1.278       .  A
C342        C853   1.494       .  S
O343       Ni362   1.940       .  S
O343        C349   1.277       .  A
O344       Ni362   1.872       .  S
O344        C346   1.270   1_545  A
Ni345       O348   1.905       .  S
Ni345       O350   1.939   1_565  S
C346        O356   1.298       .  A
C346        C743   1.492       .  S
O347       Ni363   1.961       .  S
O347        C353   1.299       .  A
O348        C353   1.278       .  A
C349        C563   1.476       .  S
O350        C352   1.274       .  A
O351       Ni362   1.964       .  S
C352        O358   1.255       .  A
C352        C540   1.496       .  S
C353        C530   1.491       .  S
H354        O355   0.965       .  S
O355       Ni363   1.959   1_545  S
O355       Ni357   1.906       .  S
O355       Ni362   1.893       .  S
O356       Ni357   1.979   1_565  S
Ni357       O361   1.912   1_545  S
Ni357       O359   1.882       .  S
O358       Ni363   1.888   1_545  S
C360        O361   1.277       .  A
C360        C553   1.500       .  S
O365       Ni371   1.930   1_655  S
O365        C386   1.275   1_655  A
O366       Ni389   1.919   1_655  S
O366        C375   1.275       .  A
O367       Ni371   1.883       .  S
O367       Ni389   1.882   1_554  S
O367       Ni383   1.886   1_455  S
O367        H390   0.966       .  S
C368        O385   1.269       .  A
C368        O377   1.279   1_554  A
C368        C970   1.518       .  S
O369       Ni388   1.940       .  S
O369        C375   1.278       .  A
O370       Ni388   1.913       .  S
O370        C372   1.272   1_655  A
Ni371       O374   1.914       .  S
Ni371       O376   1.926   1_455  S
C372        O382   1.280       .  A
C372        C643   1.483       .  S
O373       Ni389   1.949       .  S
O373        C379   1.293       .  A
O374        C379   1.279   1_554  A
C375        C500   1.493       .  S
O376        C378   1.271       .  A
O377       Ni388   1.959       .  S
C378        O384   1.265   1_554  A
C378        C520   1.486       .  S
C379        C583   1.478       .  S
H380        O381   0.965       .  S
O381       Ni389   1.945   1_655  S
O381       Ni383   1.905   1_556  S
O381       Ni388   1.898       .  S
O382       Ni383   1.943   1_456  S
Ni383       O387   1.899   1_655  S
Ni383       O385   1.919       .  S
O384       Ni389   1.912   1_655  S
C386        O387   1.268       .  A
C386        C510   1.481       .  S
O391       Ni397   1.943   1_655  S
O391        C412   1.278       .  A
O392       Ni415   1.906       .  S
O392        C401   1.269   1_455  A
O393       Ni397   1.885       .  S
O393       Ni415   1.866       .  S
O393       Ni409   1.856   1_455  S
O393        H416   0.967       .  S
C394        O411   1.253       .  A
C394        O403   1.271       .  A
C394        C910   1.486       .  S
O395       Ni414   1.926       .  S
O395        C401   1.274       .  A
O396       Ni414   1.868   1_455  S
O396        C398   1.269       .  A
Ni397       O400   1.919       .  S
Ni397       O402   1.922   1_455  S
C398        O408   1.303       .  A
C398        C680   1.488       .  S
O399       Ni415   1.934       .  S
O399        C405   1.285       .  A
O400        C405   1.276       .  A
C401        C513   1.500   1_655  S
O402        C404   1.274       .  A
O403       Ni414   1.952       .  S
C404        O410   1.272       .  A
C404        C490   1.507       .  S
C405        C543   1.469       .  S
H406        O407   0.966       .  S
O407       Ni415   1.955   1_655  S
O407       Ni409   1.904       .  S
O407       Ni414   1.908       .  S
O408       Ni409   2.005   1_455  S
Ni409       O413   1.906       .  S
Ni409       O411   1.884       .  S
O410       Ni415   1.937   1_655  S
C412        O413   1.273       .  A
C412        C503   1.481       .  S
O417       Ni423   1.939       .  S
O417        C438   1.277       .  A
O418       Ni441   1.925   1_554  S
O418        C427   1.276       .  A
O419       Ni423   1.882       .  S
O419       Ni441   1.872       .  S
O419       Ni435   1.864       .  S
O419        H442   0.967       .  S
C420        O437   1.257       .  A
C420        O429   1.268       .  A
C420        C593   1.503       .  S
O421       Ni440   1.922       .  S
O421        C427   1.272       .  A
O422       Ni440   1.872       .  S
O422        C424   1.271   1_554  A
Ni423       O426   1.918       .  S
Ni423       O428   1.919       .  S
C424        O434   1.304       .  A
C424        C823   1.492       .  S
O425       Ni441   1.947       .  S
O425        C431   1.290       .  A
O426        C431   1.280       .  A
C427        C480   1.496       .  S
O428        C430   1.271       .  A
O429       Ni440   1.943   1_556  S
C430        O436   1.271       .  A
C430        C523   1.486       .  S
C431        C573   1.498       .  S
H432        O433   0.966       .  S
O433       Ni441   1.966       .  S
O433       Ni435   1.920       .  S
O433       Ni440   1.917   1_556  S
O434       Ni435   2.007       .  S
Ni435       O439   1.917       .  S
Ni435       O437   1.899       .  S
O436       Ni441   1.931       .  S
C438        O439   1.279       .  A
C438        C473   1.490       .  S
O443       Ni449   1.921       .  S
O443        C464   1.271       .  A
O444       Ni467   1.916       .  S
O444        C453   1.273       .  A
O445       Ni449   1.882       .  S
O445       Ni467   1.880       .  S
O445       Ni461   1.882       .  S
O445        H468   0.966       .  S
C446        O463   1.263       .  A
C446        O455   1.278       .  A
C446        C620   1.493       .  S
O447       Ni466   1.941       .  S
O447        C453   1.275       .  A
O448       Ni466   1.883       .  S
O448        C450   1.269       .  A
Ni449       O452   1.919       .  S
Ni449       O454   1.920       .  S
C450        O460   1.294       .  A
C450        C780   1.507       .  S
O451       Ni467   1.938       .  S
O451        C457   1.291       .  A
O452        C457   1.280       .  A
C453        C470   1.486       .  S
O454        C456   1.266       .  A
O455       Ni466   1.958       .  S
C456        O462   1.268       .  A
C456        C493   1.504       .  S
C457        C533   1.474       .  S
H458        O459   0.965       .  S
O459       Ni467   1.947       .  S
O459       Ni461   1.921       .  S
O459       Ni466   1.900       .  S
O460       Ni461   1.980       .  S
Ni461       O465   1.929       .  S
Ni461       O463   1.896       .  S
O462       Ni467   1.927       .  S
C464        O465   1.278       .  A
C464        C483   1.499       .  S
C469        C470   1.408       .  A
C469        C474   1.413       .  A
C469       Br476   1.927       .  S
C470        C471   1.412       .  A
C471        C472   1.412       .  A
C471       Br478   1.929       .  S
C472        C473   1.410       .  A
C472       Br477   1.929       .  S
C473        C474   1.417       .  A
C474       Br475   1.930       .  S
C479        C480   1.408       .  A
C479        C484   1.407       .  A
C479       Br486   1.927       .  S
C480        C481   1.422       .  A
C481        C482   1.416       .  A
C481       Br488   1.935       .  S
C482        C483   1.413       .  A
C482       Br487   1.927       .  S
C483        C484   1.419       .  A
C484       Br485   1.936       .  S
C489        C490   1.423       .  A
C489        C494   1.415   1_545  A
C489       Br496   1.934       .  S
C490        C491   1.415       .  A
C491        C492   1.412   1_545  A
C491       Br498   1.934       .  S
C492        C493   1.417       .  A
C492       Br497   1.931       .  S
C493        C494   1.419       .  A
C494       Br495   1.938       .  S
C499        C500   1.416       .  A
C499        C504   1.409       .  A
C499       Br506   1.933       .  S
C500        C501   1.417   1_655  A
C501        C502   1.413       .  A
C501       Br508   1.930       .  S
C502        C503   1.409   1_455  A
C502       Br507   1.931       .  S
C503        C504   1.407       .  A
C504       Br505   1.929       .  S
C509        C510   1.409       .  A
C509        C514   1.403       .  A
C509       Br516   1.940       .  S
C510        C511   1.412       .  A
C511        C512   1.412   1_455  A
C511       Br518   1.935   1_455  S
C512        C513   1.423   1_655  A
C512       Br517   1.936       .  S
C513        C514   1.419       .  A
C514       Br515   1.928       .  S
C519        C520   1.416   1_556  A
C519        C524   1.412   1_545  A
C519       Br526   1.932       .  S
C520        C521   1.414   1_545  A
C521        C522   1.409       .  A
C521       Br528   1.935   1_565  S
C522        C523   1.413   1_554  A
C522       Br527   1.931       .  S
C523        C524   1.409       .  A
C524       Br525   1.930       .  S
C529        C530   1.425       .  A
C529        C534   1.406   1_455  A
C529       Br536   1.936       .  S
C530        C531   1.411       .  A
C531        C532   1.414   1_455  A
C531       Br538   1.927       .  S
C532        C533   1.412       .  A
C532       Br537   1.929       .  S
C533        C534   1.403       .  A
C534       Br535   1.935       .  S
C539        C540   1.431       .  A
C539        C544   1.406       .  A
C539       Br546   1.941       .  S
C540        C541   1.412       .  A
C541        C542   1.410       .  A
C541       Br548   1.930       .  S
C542        C543   1.410       .  A
C542       Br547   1.930       .  S
C543        C544   1.400       .  A
C544       Br545   1.926       .  S
C549        C550   1.412       .  A
C549        C554   1.410       .  A
C549       Br556   1.935       .  S
C550        C551   1.404       .  A
C551        C552   1.409       .  A
C551       Br558   1.933   1_565  S
C552        C553   1.427       .  A
C552       Br557   1.938       .  S
C553        C554   1.418       .  A
C554       Br555   1.929       .  S
C559        C560   1.413   1_545  A
C559        C564   1.409       .  A
C559       Br566   1.930       .  S
C560        C561   1.410       .  A
C561        C562   1.409       .  A
C561       Br568   1.931       .  S
C562        C563   1.411   1_565  A
C562       Br567   1.930       .  S
C563        C564   1.406       .  A
C564       Br565   1.929       .  S
C569        C570   1.424   1_554  A
C569        C574   1.411   1_455  A
C569       Br576   1.935       .  S
C570        C571   1.409       .  A
C571        C572   1.410   1_455  A
C571       Br578   1.930       .  S
C572        C573   1.421       .  A
C572       Br577   1.934       .  S
C573        C574   1.408   1_556  A
C574       Br575   1.930       .  S
C579        C580   1.416       .  A
C579        C584   1.412       .  A
C579       Br586   1.928   1_545  S
C580        C581   1.407       .  A
C581        C582   1.410       .  A
C581       Br588   1.929   1_556  S
C582        C583   1.412       .  A
C582       Br587   1.927       .  S
C583        C584   1.408       .  A
C584       Br585   1.930       .  S
C589        C590   1.422       .  A
C589        C594   1.413       .  A
C589       Br596   1.935       .  S
C590        C591   1.416       .  A
C591        C592   1.418       .  A
C591       Br598   1.931       .  S
C592        C593   1.418       .  A
C592       Br597   1.931       .  S
C593        C594   1.413       .  A
C594       Br595   1.934       .  S
C599        C600   1.413       .  A
C599        C604   1.408       .  A
C599       Br606   1.933       .  S
C600        C601   1.412       .  A
C601        C602   1.408       .  A
C601       Br608   1.930       .  S
C602        C603   1.407       .  A
C602       Br607   1.929       .  S
C603        C604   1.408       .  A
C604       Br605   1.928       .  S
C609        C610   1.414       .  A
C609        C614   1.405   1_554  A
C609       Br616   1.933       .  S
C610        C611   1.413       .  A
C611        C612   1.410   1_554  A
C611       Br618   1.930       .  S
C612        C613   1.408       .  A
C612       Br617   1.929       .  S
C613        C614   1.407       .  A
C614       Br615   1.931       .  S
C619        C620   1.415       .  A
C619        C624   1.406       .  A
C619       Br626   1.933       .  S
C620        C621   1.414       .  A
C621        C622   1.420       .  A
C621       Br628   1.926       .  S
C622        C623   1.413       .  A
C622       Br627   1.926       .  S
C623        C624   1.407       .  A
C624       Br625   1.929       .  S
C629        C630   1.415       .  A
C629        C634   1.426       .  A
C629       Br636   1.923       .  S
C630        C631   1.409       .  A
C631        C632   1.402       .  A
C631       Br638   1.917       .  S
C632        C633   1.408       .  A
C632       Br637   1.929       .  S
C633        C634   1.417       .  A
C634       Br635   1.925       .  S
C639        C640   1.426       .  A
C639        C644   1.413       .  A
C639       Br646   1.932       .  S
C640        C641   1.417       .  A
C641        C642   1.414       .  A
C641       Br648   1.931       .  S
C642        C643   1.409       .  A
C642       Br647   1.928       .  S
C643        C644   1.403       .  A
C644       Br645   1.933   1_456  S
C649        C650   1.406       .  A
C649        C654   1.402       .  A
C649       Br656   1.931       .  S
C650        C651   1.405       .  A
C651        C652   1.405       .  A
C651       Br658   1.930       .  S
C652        C653   1.414       .  A
C652       Br657   1.934       .  S
C653        C654   1.409       .  A
C654       Br655   1.931       .  S
C659        C660   1.407   1_554  A
C659        C664   1.408       .  A
C659       Br666   1.931   1_554  S
C660        C661   1.406   1_556  A
C661        C662   1.409       .  A
C661       Br668   1.932   1_554  S
C662        C663   1.419       .  A
C662       Br667   1.932       .  S
C663        C664   1.415       .  A
C664       Br665   1.932       .  S
C669        C670   1.409       .  A
C669        C674   1.409       .  A
C669       Br676   1.932       .  S
C670        C671   1.420       .  A
C671        C672   1.415       .  A
C671       Br678   1.929       .  S
C672        C673   1.408       .  A
C672       Br677   1.923       .  S
C673        C674   1.415       .  A
C674       Br675   1.930       .  S
C679        C680   1.401       .  A
C679        C684   1.415       .  A
C679       Br686   1.927       .  S
C680        C681   1.414       .  A
C681        C682   1.415       .  A
C681       Br688   1.924       .  S
C682        C683   1.415       .  A
C682       Br687   1.931       .  S
C683        C684   1.432       .  A
C684       Br685   1.930       .  S
C689        C690   1.424       .  A
C689        C694   1.415       .  A
C689       Br696   1.928       .  S
C690        C691   1.406       .  A
C691        C692   1.414       .  A
C691       Br698   1.927       .  S
C692        C693   1.415       .  A
C692       Br697   1.918       .  S
C693        C694   1.407       .  A
C694       Br695   1.929   1_556  S
C699        C700   1.411       .  A
C699        C704   1.408       .  A
C699       Br706   1.931       .  S
C700        C701   1.421       .  A
C701        C702   1.415       .  A
C701       Br708   1.926       .  S
C702        C703   1.405       .  A
C702       Br707   1.928       .  S
C703        C704   1.411       .  A
C704       Br705   1.929       .  S
C709        C710   1.412       .  A
C709        C714   1.408       .  A
C709       Br716   1.931       .  S
C710        C711   1.404       .  A
C711        C712   1.418       .  A
C711       Br718   1.925       .  S
C712        C713   1.428       .  A
C712       Br717   1.932       .  S
C713        C714   1.413       .  A
C714       Br715   1.933       .  S
C719        C720   1.412       .  A
C719        C724   1.411       .  A
C719       Br726   1.930       .  S
C720        C721   1.412       .  A
C721        C722   1.409       .  A
C721       Br728   1.931       .  S
C722        C723   1.409       .  A
C722       Br727   1.930       .  S
C723        C724   1.411       .  A
C724       Br725   1.930       .  S
C729        C730   1.406   1_554  A
C729        C734   1.407       .  A
C729       Br736   1.931   1_554  S
C730        C731   1.400   1_556  A
C731        C732   1.402       .  A
C731       Br738   1.933   1_554  S
C732        C733   1.420       .  A
C732       Br737   1.935       .  S
C733        C734   1.416       .  A
C734       Br735   1.933       .  S
C739        C740   1.415       .  A
C739        C744   1.419       .  A
C739       Br746   1.927       .  S
C740        C741   1.403       .  A
C741        C742   1.401       .  A
C741       Br748   1.927       .  S
C742        C743   1.423       .  A
C742       Br747   1.939   1_565  S
C743        C744   1.413       .  A
C744       Br745   1.926       .  S
C749        C750   1.435       .  A
C749        C754   1.416       .  A
C749       Br756   1.932       .  S
C750        C751   1.419       .  A
C751        C752   1.411       .  A
C751       Br758   1.934       .  S
C752        C753   1.410       .  A
C752       Br757   1.931       .  S
C753        C754   1.398       .  A
C754       Br755   1.927       .  S
C759        C760   1.406       .  A
C759        C764   1.412       .  A
C759       Br766   1.924       .  S
C760        C761   1.412       .  A
C761        C762   1.405       .  A
C761       Br768   1.933       .  S
C762        C763   1.412       .  A
C762       Br767   1.934       .  S
C763        C764   1.421       .  A
C764       Br765   1.928       .  S
C769        C770   1.407       .  A
C769        C774   1.416       .  A
C769       Br776   1.931       .  S
C770        C771   1.423       .  A
C771        C772   1.414       .  A
C771       Br778   1.931       .  S
C772        C773   1.409       .  A
C772       Br777   1.928       .  S
C773        C774   1.426       .  A
C774       Br775   1.930       .  S
C779        C780   1.426       .  A
C779        C784   1.406       .  A
C779       Br786   1.940       .  S
C780        C781   1.417       .  A
C781        C782   1.422       .  A
C781       Br788   1.928       .  S
C782        C783   1.417       .  A
C782       Br787   1.929       .  S
C783        C784   1.404       .  A
C784       Br785   1.930       .  S
C789        C790   1.418       .  A
C789        C794   1.406       .  A
C789       Br796   1.933       .  S
C790        C791   1.418       .  A
C791        C792   1.403       .  A
C791       Br798   1.936       .  S
C792        C793   1.404       .  A
C792       Br797   1.932       .  S
C793        C794   1.404       .  A
C794       Br795   1.930       .  S
C799        C800   1.405       .  A
C799        C804   1.410       .  A
C799       Br806   1.928       .  S
C800        C801   1.401       .  A
C801        C802   1.404       .  A
C801       Br808   1.935       .  S
C802        C803   1.423       .  A
C802       Br807   1.933       .  S
C803        C804   1.421       .  A
C804       Br805   1.934       .  S
C809        C810   1.408       .  A
C809        C814   1.414       .  A
C809       Br816   1.931       .  S
C810        C811   1.421       .  A
C811        C812   1.414       .  A
C811       Br818   1.929       .  S
C812        C813   1.409       .  A
C812       Br817   1.925       .  S
C813        C814   1.423       .  A
C814       Br815   1.927       .  S
C819        C820   1.428       .  A
C819        C824   1.418   1_554  A
C819       Br826   1.924       .  S
C820        C821   1.411       .  A
C821        C822   1.413       .  A
C821       Br828   1.931       .  S
C822        C823   1.415   1_554  A
C822       Br827   1.917       .  S
C823        C824   1.401       .  A
C824       Br825   1.926       .  S
C829        C830   1.414       .  A
C829        C834   1.413       .  A
C829       Br836   1.931       .  S
C830        C831   1.420       .  A
C831        C832   1.411       .  A
C831       Br838   1.921       .  S
C832        C833   1.403       .  A
C832       Br837   1.924       .  S
C833        C834   1.413       .  A
C834       Br835   1.929       .  S
C839        C840   1.415       .  A
C839        C844   1.423   1_565  A
C839       Br846   1.924       .  S
C840        C841   1.409       .  A
C841        C842   1.403   1_565  A
C841       Br848   1.917       .  S
C842        C843   1.421       .  A
C842       Br847   1.947       .  S
C843        C844   1.412       .  A
C844       Br845   1.924       .  S
C849        C850   1.409       .  A
C849        C854   1.410       .  A
C849       Br856   1.926       .  S
C850        C851   1.415       .  A
C851        C852   1.418       .  A
C851       Br858   1.927       .  S
C852        C853   1.411       .  A
C852       Br857   1.927       .  S
C853        C854   1.418       .  A
C854       Br855   1.933   1_545  S
C859        C860   1.402       .  A
C859        C864   1.404       .  A
C859       Br866   1.934       .  S
C860        C861   1.412       .  A
C861        C862   1.406       .  A
C861       Br868   1.934       .  S
C862        C863   1.410   1_556  A
C862       Br867   1.933   1_556  S
C863        C864   1.420   1_554  A
C864       Br865   1.929   1_556  S
C869        C870   1.409       .  A
C869        C874   1.408       .  A
C869       Br876   1.929       .  S
C870        C871   1.406       .  A
C871        C872   1.402       .  A
C871       Br878   1.934       .  S
C872        C873   1.409       .  A
C872       Br877   1.919       .  S
C873        C874   1.410       .  A
C874       Br875   1.930       .  S
C879        C880   1.406       .  A
C879        C884   1.419       .  A
C879       Br886   1.920       .  S
C880        C881   1.413       .  A
C881        C882   1.408       .  A
C881       Br888   1.931       .  S
C882        C883   1.411       .  A
C882       Br887   1.929       .  S
C883        C884   1.424       .  A
C884       Br885   1.930       .  S
C889        C890   1.433       .  A
C889        C894   1.413       .  A
C889       Br896   1.934       .  S
C890        C891   1.413       .  A
C891        C892   1.418   1_565  A
C891       Br898   1.930       .  S
C892        C893   1.419       .  A
C892       Br897   1.927       .  S
C893        C894   1.403   1_545  A
C894       Br895   1.932   1_565  S
C899        C900   1.408       .  A
C899        C904   1.413       .  A
C899       Br906   1.932       .  S
C900        C901   1.412       .  A
C901        C902   1.413       .  A
C901       Br908   1.924       .  S
C902        C903   1.409       .  A
C902       Br907   1.928       .  S
C903        C904   1.420       .  A
C904       Br905   1.928   1_545  S
C909        C910   1.410       .  A
C909        C914   1.411       .  A
C909       Br916   1.930       .  S
C910        C911   1.417       .  A
C911        C912   1.407       .  A
C911       Br918   1.929       .  S
C912        C913   1.409       .  A
C912       Br917   1.934       .  S
C913        C914   1.415       .  A
C914       Br915   1.930       .  S
C919        C920   1.428       .  A
C919        C924   1.411       .  A
C919       Br926   1.928       .  S
C920        C921   1.413       .  A
C921        C922   1.408       .  A
C921       Br928   1.932       .  S
C922        C923   1.411       .  A
C922       Br927   1.930       .  S
C923        C924   1.400       .  A
C924       Br925   1.928       .  S
C929        C930   1.413       .  A
C929        C934   1.405       .  A
C929       Br936   1.929       .  S
C930        C931   1.423       .  A
C931        C932   1.419       .  A
C931       Br938   1.928       .  S
C932        C933   1.408       .  A
C932       Br937   1.928       .  S
C933        C934   1.410       .  A
C934       Br935   1.931       .  S
C939        C940   1.397       .  A
C939        C944   1.409   1_655  A
C939       Br946   1.933       .  S
C940        C941   1.417       .  A
C941        C942   1.418   1_655  A
C941       Br948   1.921       .  S
C942        C943   1.412       .  A
C942       Br947   1.928       .  S
C943        C944   1.433       .  A
C944       Br945   1.927       .  S
C949        C950   1.425       .  A
C949        C954   1.407       .  A
C949       Br956   1.933       .  S
C950        C951   1.414       .  A
C951        C952   1.412       .  A
C951       Br958   1.929       .  S
C952        C953   1.414   1_556  A
C952       Br957   1.933   1_556  S
C953        C954   1.400   1_554  A
C954       Br955   1.929   1_556  S
C959        C960   1.403       .  A
C959        C964   1.409       .  A
C959       Br966   1.935       .  S
C960        C961   1.412       .  A
C961        C962   1.417       .  A
C961       Br968   1.930       .  S
C962        C963   1.417       .  A
C962       Br967   1.930       .  S
C963        C964   1.423       .  A
C964       Br965   1.931       .  S
C969        C970   1.417       .  A
C969        C974   1.421       .  A
C969       Br976   1.924   1_554  S
C970        C971   1.420       .  A
C971        C972   1.417       .  A
C971       Br978   1.931       .  S
C972        C973   1.411       .  A
C972       Br977   1.928       .  S
C973        C974   1.416       .  A
C974       Br975   1.932       .  S
C979        C980   1.417       .  A
C979        C984   1.412       .  A
C979       Br986   1.930       .  S
C980        C981   1.405       .  A
C981        C982   1.416       .  A
C981       Br988   1.930       .  S
C982        C983   1.424       .  A
C982       Br987   1.924       .  S
C983        C984   1.410       .  A
C984       Br985   1.930       .  S
C989        C990   1.415       .  A
C989        C994   1.422       .  A
C989       Br996   1.924       .  S
C990        C991   1.407       .  A
C991        C992   1.401       .  A
C991       Br998   1.928       .  S
C992        C993   1.412       .  A
C992       Br997   1.925       .  S
C993        C994   1.412       .  A
C994       Br995   1.925       .  S
C999       C1000   1.440       .  A
C999       C1004   1.415   1_655  A
C999      Br1006   1.943       .  S
C1000      C1001   1.424       .  A
C1001      C1002   1.422   1_655  A
C1001     Br1008   1.930       .  S
C1002      C1003   1.410       .  A
C1002     Br1007   1.927       .  S
C1003      C1004   1.402       .  A
C1004     Br1005   1.933       .  S
