geometry optimzed in LAMMPS
_audit_creation_date              2020-12-01 
_audit_creation_method            'lammps2cif' 
_symmetry_space_group_name_H-M    'P1' 
_symmetry_Int_Tables_number       1 
_symmetry_cell_setting            triclinic 
loop_ 
_symmetry_equiv_pos_as_xyz 
  x,y,z 
_cell_length_a                    28.9264612 
_cell_length_b                    28.96771783164066 
_cell_length_c                    29.061409871420533 
_cell_angle_alpha                 90.95110467427175 
_cell_angle_beta                  93.33836425183326 
_cell_angle_gamma                 88.80706431048793 
loop_ 
_atom_site_label 
_atom_site_type_symbol 
_atom_site_fract_x 
_atom_site_fract_y 
_atom_site_fract_z 
_atom_site_charge 
Zr1        Zr  0.71711327  0.79286268  0.69288137     2.17500
O2          O  0.68066433  0.83462073  0.62811424    -0.51700
O3          O  0.74061691  0.87561736  0.69742248    -0.74900
O4          O  0.63114834  0.79377760  0.69322570    -0.81700
O5          O  0.81552489  0.73796590  0.62574717    -0.83400
O6          O  0.60479376  0.76379514  0.75840777    -0.79100
O7          O  0.74167790  0.76726522  0.61719769    -0.90700
O8          O  0.78717218  0.88930274  0.76159106    -0.76600
O9          O  0.71080329  0.80865428  0.77276710    -0.86100
O10         O  0.79607130  0.80145083  0.72065162    -0.85800
O11         O  0.68334804  0.72473373  0.72336360    -0.72600
O12         O  0.75923260  0.72156711  0.68152476    -0.84700
Zr13       Zr  0.79826281  0.68054034  0.82189928     2.26400
Zr14       Zr  0.67728781  0.74089642  0.80395365     2.06300
Zr15       Zr  0.83770843  0.73010613  0.70857434     2.10000
Zr16       Zr  0.78977491  0.81748295  0.80066945     1.78800
O17         O  0.87783265  0.66491055  0.67346796    -0.93500
O18         O  0.74418717  0.87028762  0.84692732    -0.41300
O19         O  0.83112675  0.74654499  0.78849760    -0.78000
O20         O  0.75595640  0.75275364  0.83243270    -0.96700
O21         O  0.72030096  0.67037644  0.79142319    -0.90000
O22         O  0.80465625  0.66330128  0.74166821    -0.92800
C23         C  0.76710450  0.90186775  0.72360341     1.01000
C24         C  0.77835512  0.74889789  0.60108628     1.13900
C25         C  0.59773612  0.78105985  0.71773888     1.04700
O26         O  0.64154931  0.80115934  0.85010848    -0.95000
O27         O  0.69062290  0.71973607  0.88589563    -0.90700
O28         O  0.76573338  0.69465422  0.89813919    -0.83800
C29         C  0.72662462  0.70961072  0.91261082     1.11300
O30         O  0.69076168  0.65275202  0.63297827    -0.96900
Zr31       Zr  0.72628218  0.65489056  0.71120539     1.88900
O32         O  0.77550649  0.59769493  0.81580985    -0.73600
O33         O  0.61926152  0.68391782  0.81851995    -0.52800
O34         O  0.64820215  0.62468173  0.70185265    -0.97500
O35         O  0.77001547  0.59951458  0.66605842    -0.54700
O36         O  0.72201396  0.58731434  0.75643751    -0.74100
C37         C  0.74482812  0.57345079  0.79255559     0.98300
O38         O  0.84992403  0.63878638  0.87709508    -0.62900
O39         O  0.89404891  0.78374310  0.68223689    -0.57700
O40         O  0.88390982  0.69529619  0.82473056    -0.94400
O41         O  0.90990804  0.72107836  0.75757144    -0.92800
O42         O  0.86852706  0.84585445  0.80331277    -0.93200
O43         O  0.82532740  0.82328392  0.87859692    -0.92000
C44         C  0.91704044  0.70914413  0.79996127     1.17100
H45         H  0.81157401  0.82529296  0.70508114     0.33000
H46         H  0.75739197  0.76477750  0.86307145     0.43900
H47         H  0.82345875  0.63575625  0.73764054     0.37400
H48         H  0.65416486  0.71700608  0.70788524     0.33900
H49         H  0.72234223  0.88621618  0.82467458     0.25700
H50         H  0.63600794  0.65979820  0.83705014     0.31600
H51         H  0.63266078  0.63584987  0.72950968     0.37500
H52         H  0.88218568  0.83178772  0.77580033     0.32000
H53         H  0.91410200  0.76478268  0.66255070     0.30900
H54         H  0.90939444  0.67603660  0.66915282     0.32500
H55         H  0.78551432  0.57823550  0.68866162     0.31500
H56         H  0.84133085  0.79308141  0.88370348     0.35500
H57         H  0.84042676  0.64795110  0.90815170     0.28200
H58         H  0.66140118  0.85928516  0.64184915     0.32500
H59         H  0.69257109  0.62010481  0.62246905     0.35300
H60         H  0.87619229  0.80411174  0.66040531     0.27900
H61         H  0.84206009  0.60581167  0.87371304     0.40800
H62         H  0.61752479  0.78519923  0.86642866     0.30900
H63         H  0.72437483  0.85008081  0.86416365     0.38500
H64         H  0.79524298  0.61798110  0.65472383     0.30300
H65         H  0.59881689  0.69960903  0.84030864     0.30400
H66         H  0.65839687  0.81281489  0.61309692     0.30700
C67         C  0.77775344  0.30601498  0.50177935     0.86100
C68         C  0.76552353  0.28763135  0.54828010    -0.54100
C69         C  0.76686457  0.24074886  0.55132351     0.09100
C70         C  0.77919729  0.21586012  0.50583560     0.20000
C71         C  0.82598898  0.28272214  0.49541348    -0.54800
C72         C  0.82621828  0.23558560  0.49886100     0.09200
C73         C  0.74490068  0.28251274  0.46600892    -0.54400
C74         C  0.74795969  0.23536664  0.46448050     0.09700
H75         H  0.76173333  0.31012067  0.57820066     0.14200
H76         H  0.77908855  0.17762532  0.50821512     0.00000
H77         H  0.85798633  0.30104264  0.49283796     0.14500
H78         H  0.72908300  0.30219578  0.43752509     0.14300
C79         C  0.13015894  0.22772991  0.48872719     0.86100
C80         C  0.15309125  0.22024630  0.53598502    -0.54100
C81         C  0.19477027  0.24052097  0.54356012     0.09100
C82         C  0.20989861  0.26802073  0.50079245     0.20000
C83         C  0.12750554  0.28164978  0.48537452    -0.54800
C84         C  0.16934317  0.30325912  0.49223872     0.09200
C85         C  0.16485262  0.21122987  0.45550917    -0.54400
C86         C  0.20531168  0.23399580  0.45779533     0.09700
H87         H  0.13582475  0.20305263  0.56299371     0.14200
H88         H  0.24441622  0.28360591  0.50694290     0.00000
H89         H  0.09526579  0.30127127  0.48063992     0.14500
H90         H  0.15489991  0.18704090  0.42782633     0.14300
C91         C  0.78384887  0.65936172  0.50745958     0.86100
C92         C  0.75509210  0.68510560  0.46937424    -0.54100
C93         C  0.76062499  0.73180038  0.46886718     0.09100
C94         C  0.79145223  0.74948702  0.51024177     0.20000
C95         C  0.83338910  0.67662518  0.50207593    -0.54800
C96         C  0.83691836  0.72368416  0.50410555     0.09200
C97         C  0.76870506  0.68182906  0.55180531    -0.54400
C98         C  0.77371934  0.72845776  0.55440370     0.09700
H99         H  0.73946090  0.66791319  0.43963452     0.14200
H100        H  0.79404359  0.78769970  0.51191567     0.00000
H101        H  0.86316464  0.65362920  0.49899037     0.14500
H102        H  0.76023709  0.66162061  0.58117267     0.14300
C103        C  0.19389014  0.65844091  0.50628081     0.86100
C104        C  0.21472054  0.68177058  0.55089632    -0.54100
C105        C  0.21455738  0.72924527  0.55065861     0.09100
C106        C  0.19540771  0.74946965  0.50403330     0.20000
C107        C  0.14608353  0.68236282  0.50046149    -0.54800
C108        C  0.14691636  0.72964696  0.49986411     0.09200
C109        C  0.22163157  0.67754871  0.46799206    -0.54400
C110        C  0.22113971  0.72469057  0.46459513     0.09700
H111        H  0.22254010  0.66351855  0.58269856     0.14200
H112        H  0.19620554  0.78770131  0.50335860     0.00000
H113        H  0.11400675  0.66358648  0.50135768     0.14500
H114        H  0.23642427  0.65487092  0.44229315     0.14300
C115        C  0.32908733  0.51554469  0.87295541     0.86100
C116        C  0.31167061  0.55891642  0.84726754    -0.54100
C117        C  0.26704252  0.55844953  0.83021740     0.09100
C118        C  0.24200028  0.51274157  0.84023840     0.20000
C119        C  0.29338256  0.51222395  0.91007418    -0.54800
C120        C  0.24803653  0.51065861  0.89288789     0.09200
C121        C  0.31827021  0.47491031  0.83986470    -0.54400
C122        C  0.27309142  0.47171183  0.82374371     0.09700
H123        H  0.33165786  0.59019585  0.84643692     0.14200
H124        H  0.20533958  0.51170696  0.82668646     0.00000
H125        H  0.30174122  0.51411541  0.94667895     0.14500
H126        H  0.34406135  0.44830004  0.83276426     0.14300
C127        C  0.35974442  0.50479385  0.16466319     0.86100
C128        C  0.35466376  0.47150736  0.20422180    -0.54100
C129        C  0.31081462  0.46767792  0.21879869     0.09100
C130        C  0.27676291  0.50521645  0.19738082     0.20000
C131        C  0.31959629  0.49264682  0.12876056    -0.54800
C132        C  0.27607261  0.49175692  0.14632823     0.09200
C133        C  0.34348832  0.55168456  0.18301832    -0.54400
C134        C  0.29983337  0.55385840  0.19866578     0.09700
H135        H  0.38203731  0.44644973  0.21326969     0.14200
H136        H  0.24331980  0.50508454  0.21361067     0.00000
H137        H  0.32448754  0.48599562  0.09264066     0.14500
H138        H  0.36250196  0.58268854  0.17770975     0.14300
C139        C  0.67869693  0.49387924  0.86455069     0.86100
C140        C  0.69530288  0.44682799  0.84745096    -0.54100
C141        C  0.73839790  0.44582155  0.83124201     0.09100
C142        C  0.76264915  0.49329699  0.83456105     0.20000
C143        C  0.71720084  0.50673327  0.90179945    -0.54800
C144        C  0.76112838  0.50785973  0.88541606     0.09200
C145        C  0.68575413  0.52787577  0.82566586    -0.54400
C146        C  0.72973967  0.52917585  0.81117484     0.09700
H147        H  0.67376890  0.41646645  0.84694986     0.14200
H148        H  0.79710571  0.49282335  0.81977480     0.00000
H149        H  0.71115361  0.51403940  0.93755846     0.14500
H150        H  0.65943099  0.55365242  0.81544675     0.14300
C151        C  0.79259490  0.48386968  0.12537396     0.86100
C152        C  0.80233801  0.44533193  0.15878395    -0.54100
C153        C  0.77148682  0.44191922  0.19169143     0.09100
C154        C  0.73405590  0.48222089  0.19047792     0.20000
C155        C  0.74117367  0.47905367  0.10729976    -0.54800
C156        C  0.71016141  0.47885759  0.14155801     0.09200
C157        C  0.79128032  0.52792296  0.15470311    -0.54400
C158        C  0.76095251  0.52808978  0.18843403     0.09700
H159        H  0.83011340  0.42011106  0.15405661     0.14200
H160        H  0.70973389  0.48166871  0.21863308     0.00000
H161        H  0.73060581  0.47686335  0.07095871     0.14500
H162        H  0.80889453  0.55914797  0.14630060     0.14300
C163        C  0.50934119  0.83853257  0.19013405     0.86100
C164        C  0.46265332  0.81703148  0.18476526    -0.54100
C165        C  0.45760849  0.77998175  0.21124301     0.09100
C166        C  0.50329162  0.76444282  0.23865240     0.20000
C167        C  0.52049816  0.84543474  0.24310772    -0.54800
C168        C  0.51559780  0.80703321  0.26946307     0.09200
C169        C  0.54195196  0.79968267  0.17590428    -0.54400
C170        C  0.54254534  0.76124809  0.20263884     0.09700
H171        H  0.43359192  0.83356153  0.16546347     0.14200
H172        H  0.49861339  0.73209141  0.25753260     0.00000
H173        H  0.52941170  0.87876501  0.25836290     0.14500
H174        H  0.57172425  0.80737051  0.15659124     0.14300
C175        C  0.51162432  0.13481579  0.19133237     0.86100
C176        C  0.54735189  0.17118448  0.18665275    -0.54100
C177        C  0.54685234  0.20549560  0.21865429     0.09100
C178        C  0.50276891  0.20536852  0.24699642     0.20000
C179        C  0.51274254  0.12241629  0.24352079    -0.54800
C180        C  0.50757837  0.15964216  0.27315065     0.09200
C181        C  0.46573368  0.16086552  0.18330507    -0.54400
C182        C  0.46025925  0.19794450  0.21179471     0.09700
H183        H  0.57638699  0.16508068  0.16493438     0.14200
H184        H  0.49837845  0.23695137  0.26850779     0.00000
H185        H  0.51916466  0.08746029  0.25494865     0.14500
H186        H  0.43686808  0.14829816  0.16148780     0.14300
C187        C  0.50247346  0.80826512  0.62529315     0.86100
C188        C  0.46081992  0.78443565  0.64521350    -0.54100
C189        C  0.46000275  0.78477883  0.69241512     0.09100
C190        C  0.50520792  0.80544133  0.71614586     0.20000
C191        C  0.50186743  0.85608789  0.64988201    -0.54800
C192        C  0.50416444  0.85412173  0.69718879     0.09200
C193        C  0.54521752  0.78318466  0.64724315    -0.54400
C194        C  0.54917999  0.78378064  0.69452286     0.09700
H195        H  0.42997049  0.77563630  0.62441498     0.14200
H196        H  0.50669614  0.80434542  0.75439328     0.00000
H197        H  0.50035649  0.88855306  0.63163688     0.14500
H198        H  0.57343848  0.77149607  0.62656031     0.14300
C199        C  0.49817893  0.19298538  0.62534489     0.86100
C200        C  0.54231769  0.21517519  0.64668051    -0.54100
C201        C  0.54698743  0.21580018  0.69388894     0.09100
C202        C  0.50174071  0.20043453  0.71595087     0.20000
C203        C  0.49409109  0.14703127  0.65093681    -0.54800
C204        C  0.49555698  0.15131292  0.69803756     0.09200
C205        C  0.45903648  0.22314519  0.64462250    -0.54400
C206        C  0.45840817  0.22488276  0.69177601     0.09700
H207        H  0.57023451  0.22513912  0.62571986     0.14200
H208        H  0.50307553  0.20394801  0.75411609     0.00000
H209        H  0.48733776  0.11432234  0.63331142     0.14500
H210        H  0.42947781  0.23603688  0.62396875     0.14300
Zr211      Zr  0.29012632  0.21262469  0.68130589     2.17500
O212        O  0.32185927  0.17527729  0.61373319    -0.51700
O213        O  0.27178973  0.12820951  0.68075391    -0.74900
O214        O  0.37608130  0.21556365  0.68500956    -0.81700
O215        O  0.18037832  0.25582636  0.62111013    -0.83400
O216        O  0.40750135  0.24251782  0.75351595    -0.79100
O217        O  0.25351756  0.23254886  0.60533521    -0.90700
O218        O  0.24931949  0.10615647  0.75045668    -0.76600
O219        O  0.30472103  0.19170234  0.75968403    -0.86100
O220        O  0.21577454  0.19789273  0.70959695    -0.85800
O221        O  0.32306035  0.28082744  0.71883887    -0.72600
O222        O  0.24349009  0.28264973  0.67422313    -0.84700
Zr223      Zr  0.21992814  0.31292109  0.82146488     2.26400
Zr224      Zr  0.33848457  0.25836869  0.79765590     2.06300
Zr225      Zr  0.17008356  0.26785491  0.70342187     2.10000
Zr226      Zr  0.23050050  0.17768753  0.78818041     1.78800
O227        O  0.12677170  0.33099228  0.66562183    -0.93500
O228        O  0.27739128  0.13170964  0.84383961    -0.41300
O229        O  0.18486516  0.24744524  0.78256107    -0.78000
O230        O  0.26509341  0.24154047  0.82781258    -0.96700
O231        O  0.29266422  0.32834164  0.79082291    -0.90000
O232        O  0.20243514  0.33449437  0.74319523    -0.92800
C233        C  0.25800283  0.09755372  0.70869126     1.01000
C234        C  0.21162364  0.24447707  0.59278454     1.13900
C235        C  0.41131615  0.22754628  0.71190322     1.04700
O236        O  0.37980928  0.19171648  0.83104169    -0.95000
O237        O  0.33337915  0.27533138  0.88036121    -0.90700
O238        O  0.26103090  0.30042056  0.89756610    -0.83800
C239        C  0.30320670  0.28836182  0.90932806     1.11300
O240        O  0.21791092  0.39582592  0.66802748    -0.96900
Zr241      Zr  0.27519008  0.34930793  0.71266265     1.88900
O242        O  0.23646565  0.39748055  0.82457709    -0.73600
O243        O  0.39869648  0.31297123  0.82124544    -0.52800
O244        O  0.34831309  0.38923741  0.71116907    -0.97500
O245        O  0.30195180  0.36041063  0.63562415    -0.54700
O246        O  0.27388804  0.41785653  0.76167092    -0.74100
C247        C  0.25808359  0.42701233  0.80113354     0.98300
O248        O  0.18208429  0.34687009  0.88702488    -0.62900
O249        O  0.11098637  0.21225486  0.67890874    -0.57700
O250        O  0.13468088  0.30249344  0.81723648    -0.94400
O251        O  0.10158793  0.27980423  0.74806021    -0.92800
O252        O  0.15703334  0.13991887  0.77042110    -0.93200
O253        O  0.18687687  0.16409422  0.85577699    -0.92000
C254        C  0.09887380  0.29158141  0.79060775     1.17100
H255        H  0.20003201  0.17360636  0.69224342     0.33000
H256        H  0.26782303  0.22917381  0.85837152     0.43900
H257        H  0.18153674  0.36093158  0.74145881     0.37400
H258        H  0.35063649  0.29066391  0.70512634     0.33900
H259        H  0.27603906  0.14815825  0.87388169     0.25700
H260        H  0.38187223  0.34063339  0.83256908     0.31600
H261        H  0.36602664  0.37945290  0.73965845     0.37500
H262        H  0.13430201  0.16554944  0.76492112     0.32000
H263        H  0.08834327  0.22997748  0.65896624     0.30900
H264        H  0.09628712  0.31793154  0.65603092     0.32500
H265        H  0.27631362  0.34967572  0.61428056     0.31500
H266        H  0.18633201  0.19421504  0.87236251     0.35500
H267        H  0.15761030  0.36737422  0.87294629     0.28200
H268        H  0.34007549  0.14821637  0.62545564     0.32500
H269        H  0.21496810  0.42515535  0.68567807     0.35300
H270        H  0.12598083  0.19056781  0.65742362     0.27900
H271        H  0.16531584  0.32149880  0.90070611     0.40800
H272        H  0.38422779  0.16989759  0.80498797     0.30900
H273        H  0.25973517  0.10320089  0.84748000     0.38500
H274        H  0.32676967  0.33671799  0.63233145     0.30300
H275        H  0.41455725  0.29964052  0.84923449     0.30400
H276        H  0.34505853  0.19652814  0.60274116     0.30700
Zr277      Zr  0.30854513  0.71970189  0.19073591     2.17500
O278        O  0.36176239  0.68300499  0.13843135    -0.51700
O279        O  0.30189292  0.75194964  0.11033813    -0.74900
O280        O  0.30039791  0.63509578  0.18749714    -0.81700
O281        O  0.38811448  0.80922664  0.24011715    -0.83400
O282        O  0.23961005  0.60850925  0.22457093    -0.79100
O283        O  0.38962136  0.73622287  0.20960666    -0.90700
O284        O  0.23983173  0.80103732  0.10423562    -0.76600
O285        O  0.22647821  0.71741171  0.17896831    -0.86100
O286        O  0.28652174  0.79949607  0.18899870    -0.85800
O287        O  0.28184428  0.68481918  0.25934999    -0.72600
O288        O  0.33271297  0.75558305  0.26340536    -0.84700
Zr289      Zr  0.19767408  0.79801350  0.31411970     2.26400
Zr290      Zr  0.19891418  0.68203240  0.24674081     2.06300
Zr291      Zr  0.31002126  0.83474946  0.26122272     2.10000
Zr292      Zr  0.20450021  0.79736584  0.17638659     1.78800
O293        O  0.35710363  0.86916317  0.32456612    -0.93500
O294        O  0.15349917  0.75567244  0.12150372    -0.41300
O295        O  0.22810057  0.83193173  0.24850292    -0.78000
O296        O  0.17359262  0.76159908  0.24070493    -0.96700
O297        O  0.22269311  0.71913719  0.31865584    -0.90000
O298        O  0.27955548  0.80111415  0.32821682    -0.92800
C299        C  0.27599333  0.78243306  0.08827034     1.01000
C300        C  0.40943829  0.77356015  0.22319945     1.13900
C301        C  0.27723884  0.60161242  0.20318255     1.04700
O302        O  0.14875553  0.64947278  0.18474380    -0.95000
O303        O  0.12179070  0.70083442  0.27660654    -0.90700
O304        O  0.11774224  0.77268039  0.30976079    -0.83800
C305        C  0.09958500  0.73433264  0.29665892     1.11300
O306        O  0.37898842  0.68069196  0.33371588    -0.96900
Zr307      Zr  0.30475779  0.72217850  0.33032649     1.88900
O308        O  0.20766303  0.77260270  0.39649047    -0.73600
O309        O  0.17711754  0.62220954  0.29888864    -0.52800
O310        O  0.30243441  0.64326771  0.35798729    -0.97500
O311        O  0.36746167  0.76169155  0.37277538    -0.54700
O312        O  0.27104253  0.72531288  0.40392249    -0.74100
C313        C  0.23480579  0.74417446  0.41975485     0.98300
O314        O  0.14568805  0.84587303  0.35830856    -0.62900
O315        O  0.33140703  0.89407165  0.20843154    -0.57700
O316        O  0.20244980  0.88234113  0.30133200    -0.94400
O317        O  0.26811546  0.90835751  0.27280513    -0.92800
O318        O  0.20282932  0.87795785  0.15373257    -0.93200
O319        O  0.13054341  0.83901854  0.17505284    -0.92000
C320        C  0.22723969  0.91536673  0.28687348     1.17100
H321        H  0.30164179  0.81654275  0.16616820     0.33000
H322        H  0.14102149  0.76497971  0.23226970     0.43900
H323        H  0.28723018  0.81829589  0.35626471     0.37400
H324        H  0.29639897  0.65531717  0.26577982     0.33900
H325        H  0.17408449  0.73689898  0.10219836     0.25700
H326        H  0.16935534  0.59517079  0.27883171     0.31600
H327        H  0.31867068  0.64397358  0.38894190     0.37500
H328        H  0.23569466  0.88708555  0.15608013     0.32000
H329        H  0.34525254  0.91854882  0.22865027     0.30900
H330        H  0.33541112  0.88939603  0.34117685     0.32500
H331        H  0.35226283  0.78624567  0.39089028     0.31500
H332        H  0.12780453  0.85045963  0.20710319     0.35500
H333        H  0.16539239  0.86784195  0.37650599     0.28200
H334        H  0.34229466  0.66382467  0.11681144     0.32500
H335        H  0.38646183  0.67639058  0.30108135     0.35300
H336        H  0.35756799  0.88060663  0.19190777     0.27900
H337        H  0.12723701  0.86481118  0.33566693     0.40800
H338        H  0.11752359  0.66246952  0.18987284     0.30900
H339        H  0.13821777  0.73288107  0.14021803     0.38500
H340        H  0.38360418  0.77834960  0.34912971     0.30300
H341        H  0.20634820  0.61318327  0.31613913     0.30400
H342        H  0.38079067  0.66062753  0.15710449     0.30700
Zr343      Zr  0.81781345  0.27966937  0.20408937     2.17500
O344        O  0.87358410  0.31510291  0.15637229    -0.51700
O345        O  0.79528820  0.36295829  0.20037720    -0.74900
O346        O  0.80395599  0.26044150  0.12041442    -0.81700
O347        O  0.90292588  0.24059067  0.30647620    -0.83400
O348        O  0.72568013  0.25491611  0.11038452    -0.79100
O349        O  0.89848288  0.27750791  0.23781681    -0.90700
O350        O  0.74338798  0.39294510  0.24844818    -0.76600
O351        O  0.74019003  0.30572120  0.21081649    -0.86100
O352        O  0.80916205  0.29895691  0.28355689    -0.85800
O353        O  0.77291303  0.21236318  0.18311752    -0.72600
O354        O  0.83594913  0.21022131  0.24744035    -0.84700
Zr355      Zr  0.69648806  0.19186186  0.30688779     2.26400
Zr356      Zr  0.69559626  0.24110100  0.18592531     2.06300
Zr357      Zr  0.82358938  0.22921122  0.32617998     2.10000
Zr358      Zr  0.73069362  0.32423443  0.29039196     1.78800
O359        O  0.86774369  0.16389439  0.35802346    -0.93500
O360        O  0.65585158  0.36355924  0.27779321    -0.41300
O361        O  0.74528939  0.25478656  0.33138031    -0.78000
O362        O  0.68255332  0.26211514  0.26463063    -0.96700
O363        O  0.70903488  0.17147542  0.22886036    -0.90000
O364        O  0.77542613  0.16544824  0.30488613    -0.92800
C365        C  0.77025410  0.39693866  0.21572915     1.01000
C366        C  0.92138518  0.26197064  0.27404925     1.13900
C367        C  0.76650053  0.25316689  0.09488800     1.04700
O368        O  0.64891799  0.30088223  0.14651472    -0.95000
O369        O  0.61595468  0.23762090  0.20243935    -0.90700
O370        O  0.61535368  0.19953654  0.27049587    -0.83800
C371        C  0.59494009  0.21751823  0.23369139     1.11300
O372        O  0.83695916  0.12453246  0.16387614    -0.96900
Zr373      Zr  0.78814566  0.14535647  0.22714738     1.88900
O374        O  0.70436597  0.10606759  0.30488482    -0.73600
O375        O  0.66460668  0.17712161  0.13916586    -0.52800
O376        O  0.75443578  0.09526887  0.16635577    -0.97500
O377        O  0.86119672  0.11616784  0.26274780    -0.54700
O378        O  0.75982917  0.07648286  0.26045518    -0.74100
C379        C  0.72831893  0.07157921  0.28872319     0.98300
O380        O  0.64077960  0.17075549  0.36213496    -0.62900
O381        O  0.85780442  0.28560010  0.38033192    -0.57700
O382        O  0.71421454  0.21192237  0.38976080    -0.94400
O383        O  0.79247026  0.21722711  0.40120916    -0.92800
O384        O  0.77668874  0.37094466  0.34573912    -0.93200
O385        O  0.68882767  0.33719350  0.35986629    -0.92000
C386        C  0.75145638  0.21750501  0.41609764     1.17100
H387        H  0.83068500  0.32260992  0.29364133     0.33000
H388        H  0.65195461  0.27447402  0.26911293     0.43900
H389        H  0.78259342  0.14038217  0.32577793     0.37400
H390        H  0.77802866  0.19741501  0.15418296     0.33900
H391        H  0.66190043  0.39681776  0.28293268     0.25700
H392        H  0.64400966  0.19197327  0.11510502     0.31600
H393        H  0.72139721  0.09298507  0.17302761     0.37500
H394        H  0.76270895  0.40237539  0.34351029     0.32000
H395        H  0.83107923  0.30341307  0.39166955     0.30900
H396        H  0.89487235  0.16001382  0.33900604     0.32500
H397        H  0.87349771  0.09270156  0.24136979     0.31500
H398        H  0.67191840  0.30824194  0.36366103     0.35500
H399        H  0.62291058  0.19964374  0.36750168     0.28200
H400        H  0.88735854  0.34021675  0.17586060     0.32500
H401        H  0.84236069  0.09069842  0.16538845     0.35300
H402        H  0.86961250  0.26723917  0.40704256     0.27900
H403        H  0.61878779  0.15002038  0.34509789     0.40800
H404        H  0.65828073  0.33011755  0.16217977     0.30900
H405        H  0.64878466  0.36031332  0.24419580     0.38500
H406        H  0.85236152  0.09854392  0.28963698     0.30300
H407        H  0.69124323  0.16486353  0.12252275     0.30400
H408        H  0.85478407  0.33170735  0.13208548     0.30700
Zr409      Zr  0.71340757  0.18800147  0.69120607     2.17500
O410        O  0.66833952  0.14593853  0.63172699    -0.51700
O411        O  0.73767287  0.10496976  0.68736321    -0.74900
O412        O  0.73720042  0.20457345  0.61442629    -0.81700
O413        O  0.60376540  0.22439933  0.75966878    -0.83400
O414        O  0.80990947  0.23347221  0.62353010    -0.79100
O415        O  0.62846358  0.20031878  0.69032486    -0.90700
O416        O  0.77866476  0.08257627  0.75211454    -0.76600
O417        O  0.79263815  0.17474146  0.71554475    -0.86100
O418        O  0.70987046  0.16553996  0.76925622    -0.85800
O419        O  0.75169945  0.26121876  0.68436703    -0.72600
O420        O  0.67994685  0.25261367  0.73122969    -0.84700
Zr421      Zr  0.79773431  0.28867688  0.82644998     2.26400
Zr422      Zr  0.83172916  0.24666708  0.70722079     2.06300
Zr423      Zr  0.67684250  0.23084960  0.80955640     2.10000
Zr424      Zr  0.78960281  0.15343274  0.79425000     1.78800
O425        O  0.62720948  0.28828777  0.84558106    -0.93500
O426        O  0.86708977  0.12134917  0.78481874    -0.41300
O427        O  0.75633488  0.21848197  0.83010770    -0.78000
O428        O  0.83128499  0.22327230  0.78649063    -0.96700
O429        O  0.79954430  0.31170458  0.74856130    -0.90000
O430        O  0.71754593  0.30212308  0.80401884    -0.92800
C431        C  0.76061129  0.07456385  0.71189902     1.01000
C432        C  0.59582540  0.21332174  0.71662378     1.13900
C433        C  0.77322888  0.22172712  0.59841692     1.04700
O434        O  0.89269486  0.19478616  0.68157517    -0.95000
O435        O  0.90578557  0.26743730  0.75022979    -0.90700
O436        O  0.88228728  0.29275897  0.81976387    -0.83800
C437        C  0.91448253  0.28280836  0.79183222     1.11300
O438        O  0.67333546  0.33860097  0.65452335    -0.96900
Zr439      Zr  0.71965532  0.32401687  0.72566972     1.88900
O440        O  0.77776982  0.37222341  0.83329037    -0.73600
O441        O  0.86165277  0.31399155  0.67049324    -0.52800
O442        O  0.75910053  0.37320321  0.67385979    -0.97500
O443        O  0.64334482  0.35778439  0.73745279    -0.54700
O444        O  0.73426990  0.39381338  0.76950887    -0.74100
C445        C  0.75389997  0.40224772  0.80912167     0.98300
O446        O  0.82821557  0.31229797  0.90291707    -0.62900
O447        O  0.63179363  0.17086362  0.84253969    -0.57700
O448        O  0.77896065  0.25899488  0.90078878    -0.94400
O449        O  0.70884907  0.22457527  0.89070522    -0.92800
O450        O  0.75336646  0.10033835  0.84469184    -0.93200
O451        O  0.82856745  0.14562617  0.87038799    -0.92000
C452        C  0.74547950  0.23640340  0.91573876     1.17100
H453        H  0.69203685  0.13793386  0.77160969     0.33000
H454        H  0.86184235  0.21503673  0.79904787     0.43900
H455        H  0.70362910  0.32573176  0.82288698     0.37400
H456        H  0.74723258  0.27528558  0.65474586     0.33900
H457        H  0.86597773  0.08926500  0.79587867     0.25700
H458        H  0.89225310  0.30382478  0.66005729     0.31600
H459        H  0.74188835  0.40309643  0.67437490     0.37500
H460        H  0.72607809  0.11762238  0.85553789     0.32000
H461        H  0.60216446  0.18646527  0.84945648     0.30900
H462        H  0.62906362  0.28054177  0.87869739     0.32500
H463        H  0.64462886  0.36742349  0.77032246     0.31500
H464        H  0.83444654  0.17770996  0.88108914     0.35500
H465        H  0.85884077  0.29662367  0.90746314     0.28200
H466        H  0.68972460  0.12283336  0.61864467     0.32500
H467        H  0.66268314  0.30776827  0.64380889     0.35300
H468        H  0.62348028  0.14972685  0.81639827     0.27900
H469        H  0.83442345  0.34560547  0.90081586     0.40800
H470        H  0.87661847  0.17240258  0.66043308     0.30900
H471        H  0.86938565  0.11800849  0.75105429     0.38500
H472        H  0.62222208  0.33126802  0.73576988     0.30300
H473        H  0.84193944  0.31797364  0.64177809     0.30400
H474        H  0.66260658  0.16835849  0.60661701     0.30700
C475        C  0.70993512  0.80338994  0.00146529     0.86100
C476        C  0.73099262  0.77824275  0.96048180    -0.54100
C477        C  0.72736031  0.73107101  0.95966899     0.09100
C478        C  0.70437383  0.71269819  0.00279726     0.20000
C479        C  0.66011373  0.78507540  0.99958460    -0.54800
C480        C  0.65770527  0.73792640  0.00103125     0.09200
C481        C  0.73501620  0.78101554  0.04285984    -0.54400
C482        C  0.73037030  0.73460310  0.04591456     0.09700
H483        H  0.74101824  0.79591502  0.93043507     0.14200
H484        H  0.70211986  0.67450427  0.00390768     0.00000
H485        H  0.62934389  0.80716680  0.99688812     0.14500
H486        H  0.75210427  0.80129594  0.07019427     0.14300
C487        C  0.73694998  0.15731226  0.01586298     0.86100
C488        C  0.76951339  0.18220293  0.05145699    -0.54100
C489        C  0.76941659  0.22959314  0.04882352     0.09100
C490        C  0.73969970  0.24679749  0.00598430     0.20000
C491        C  0.69005111  0.18344234  0.02134472    -0.54800
C492        C  0.69161193  0.22995127  0.01415875     0.09200
C493        C  0.75179106  0.17187133  0.96888560    -0.54400
C494        C  0.75201697  0.21833977  0.96293191     0.09700
H495        H  0.78058178  0.16513124  0.08315709     0.14200
H496        H  0.74175653  0.28458270  0.00073407     0.00000
H497        H  0.65885378  0.16724008  0.03136096     0.14500
H498        H  0.75577262  0.14735185  0.94060785     0.14300
C499        C  0.31931633  0.87141729  0.00550405     0.86100
C500        C  0.29178775  0.85177518  0.04392101    -0.54100
C501        C  0.29129755  0.80446437  0.04563887     0.09100
C502        C  0.31546268  0.78054672  0.00531140     0.20000
C503        C  0.36689782  0.84618938  0.01054789    -0.54800
C504        C  0.36478874  0.79877375  0.00908643     0.09200
C505        C  0.29716294  0.84946643  0.96082305    -0.54400
C506        C  0.29563867  0.80240206  0.96016746     0.09700
H507        H  0.27739686  0.87383158  0.07034252     0.14200
H508        H  0.31301416  0.74234797  0.00484620     0.00000
H509        H  0.39910304  0.86463522  0.01393387     0.14500
H510        H  0.28976642  0.86764916  0.92909409     0.14300
C511        C  0.38933811  0.30112138  0.01040803     0.86100
C512        C  0.35614682  0.31541994  0.04653853    -0.54100
C513        C  0.31562119  0.29220960  0.04474289     0.09100
C514        C  0.30893742  0.26120134  0.00003903     0.20000
C515        C  0.39174980  0.24752701  0.01029381    -0.54800
C516        C  0.34997363  0.22610969  0.00437924     0.09200
C517        C  0.36269416  0.31258407  0.96513246    -0.54400
C518        C  0.32104320  0.29201543  0.95841840     0.09700
H519        H  0.36719583  0.33750760  0.07544658     0.14200
H520        H  0.27447062  0.24504721  0.99552635     0.00000
H521        H  0.42413486  0.22845888  0.01609341     0.14500
H522        H  0.37677732  0.33087895  0.93717300     0.14300
Zr523      Zr  0.22213845  0.72128579  0.83073481     2.17500
O524        O  0.19217576  0.69697524  0.90318718    -0.51700
O525        O  0.24068347  0.63707812  0.83821402    -0.74900
O526        O  0.13645662  0.72427416  0.82912125    -0.81700
O527        O  0.32589144  0.78607789  0.88725759    -0.83400
O528        O  0.10469661  0.73969171  0.75746452    -0.79100
O529        O  0.25614690  0.75613686  0.90253419    -0.90700
O530        O  0.25132961  0.60719211  0.76742555    -0.76600
O531        O  0.20963408  0.68946536  0.75504230    -0.86100
O532        O  0.29880275  0.70207691  0.80780823    -0.85800
O533        O  0.18618401  0.78285001  0.78472232    -0.72600
O534        O  0.26619981  0.79061789  0.82864607    -0.84700
Zr535      Zr  0.29124796  0.80240613  0.68328282     2.26400
Zr536      Zr  0.17322360  0.74982314  0.70867027     2.06300
Zr537      Zr  0.34209201  0.77218782  0.80549484     2.10000
Zr538      Zr  0.28616441  0.67149645  0.73180721     1.78800
O539        O  0.39015720  0.83638731  0.83197061    -0.93500
O540        O  0.25606257  0.62283832  0.66799861    -0.41300
O541        O  0.32862777  0.74179636  0.72908069    -0.78000
O542        O  0.25022229  0.73024456  0.68612122    -0.96700
O543        O  0.21589720  0.82089027  0.70876541    -0.90000
O544        O  0.30609240  0.83296323  0.75925410    -0.92800
C545        C  0.24821503  0.60258531  0.81058871     1.01000
C546        C  0.29322320  0.77822176  0.91458243     1.13900
C547        C  0.10084815  0.73167375  0.80100213     1.04700
O548        O  0.13601612  0.67977287  0.67910037    -0.95000
O549        O  0.18354613  0.74702824  0.62369632    -0.90700
O550        O  0.25474782  0.77440542  0.60904023    -0.83800
C551        C  0.21645131  0.75457232  0.59622351     1.11300
O552        O  0.18281643  0.87014932  0.84924968    -0.96900
Zr553      Zr  0.23091937  0.85149391  0.78501436     1.88900
O554        O  0.26862465  0.88664902  0.67534543    -0.73600
O555        O  0.11202673  0.80086498  0.67649507    -0.52800
O556        O  0.16222618  0.89672098  0.76041599    -0.97500
O557        O  0.27316193  0.89557901  0.84534836    -0.54700
O558        O  0.25420787  0.91828649  0.74483226    -0.74100
C559        C  0.25854965  0.92169371  0.70168476     0.98300
O560        O  0.33143841  0.83107081  0.61823246    -0.62900
O561        O  0.39666568  0.71754313  0.84327786    -0.57700
O562        O  0.37692971  0.79374820  0.68594369    -0.94400
O563        O  0.40969414  0.77685439  0.75676325    -0.92800
O564        O  0.35475478  0.63183103  0.76557417    -0.93200
O565        O  0.33890228  0.64717966  0.67329507    -0.92000
C566        C  0.41281528  0.78496619  0.71347575     1.17100
H567        H  0.31425629  0.68020385  0.82851517     0.33000
H568        H  0.25090712  0.71207095  0.65827816     0.43900
H569        H  0.32561570  0.85962334  0.75913735     0.37400
H570        H  0.15790902  0.79474352  0.79668978     0.33900
H571        H  0.26136050  0.59065545  0.67831288     0.25700
H572        H  0.12839200  0.82741562  0.66450615     0.31600
H573        H  0.14357163  0.87566468  0.74001181     0.37500
H574        H  0.37906229  0.65547141  0.76730719     0.32000
H575        H  0.42560912  0.73493140  0.84887576     0.30900
H576        H  0.42211330  0.82344401  0.83488445     0.32500
H577        H  0.26456582  0.92828891  0.83940326     0.31500
H578        H  0.34197856  0.67488840  0.65428793     0.35500
H579        H  0.33920035  0.80343166  0.59946651     0.28200
H580        H  0.17145180  0.67095094  0.89498517     0.32500
H581        H  0.18044246  0.90429237  0.85061142     0.35300
H582        H  0.38523594  0.71348138  0.87439543     0.27900
H583        H  0.30757830  0.84809473  0.59904246     0.40800
H584        H  0.12512490  0.66440185  0.70654946     0.30900
H585        H  0.22203737  0.62754768  0.66744402     0.38500
H586        H  0.30608094  0.89280583  0.83794623     0.30300
H587        H  0.09937321  0.78439798  0.64856473     0.30400
H588        H  0.17128010  0.72235265  0.91297684     0.30700
C589        C  0.83131264  0.98236200  0.65066787     0.86100
C590        C  0.82549723  0.94725639  0.68953826    -0.54100
C591        C  0.78227907  0.94652023  0.70605307     0.09100
C592        C  0.74949151  0.98410345  0.68576691     0.20000
C593        C  0.79067619  0.97207736  0.61562824    -0.54800
C594        C  0.74801805  0.97146821  0.63447229     0.09200
C595        C  0.81833592  0.02846831  0.67307675    -0.54400
C596        C  0.77554781  0.03056381  0.69004912     0.09700
H597        H  0.85093470  0.92121533  0.70044938     0.14200
H598        H  0.71577815  0.98494596  0.70206430     0.00000
H599        H  0.79563818  0.96525261  0.57941952     0.14500
H600        H  0.84129229  0.05775766  0.67520363     0.14300
C601        C  0.17706140  0.01332370  0.64600927     0.86100
C602        C  0.19341263  0.05296361  0.67775744    -0.54100
C603        C  0.23950667  0.05298348  0.69001667     0.09100
C604        C  0.26637797  0.01103308  0.66992136     0.20000
C605        C  0.20883665  0.01739282  0.60518011    -0.54800
C606        C  0.25562427  0.01679368  0.61806629     0.09200
C607        C  0.19410050  0.96868702  0.66907109    -0.54400
C608        C  0.24025069  0.96598486  0.68095965     0.09700
H609        H  0.17106350  0.08258958  0.68473352     0.14200
H610        H  0.30382187  0.01079712  0.68074682     0.00000
H611        H  0.19654679  0.02459745  0.57006798     0.14500
H612        H  0.17112731  0.94023089  0.67423097     0.14300
C613        C  0.71463516  0.99428164  0.38433252     0.86100
C614        C  0.71552976  0.94506071  0.36593006    -0.54100
C615        C  0.73911898  0.93904519  0.32757153     0.09100
C616        C  0.76020512  0.98445101  0.31047487     0.20000
C617        C  0.76766384  0.00533162  0.39125860    -0.54800
C618        C  0.79287261  0.99841736  0.35209420     0.09200
C619        C  0.69631577  0.02450376  0.34538474    -0.54400
C620        C  0.72208960  0.02427058  0.30824461     0.09700
H621        H  0.70003115  0.91656516  0.38299141     0.14200
H622        H  0.77358702  0.97757405  0.27674527     0.00000
H623        H  0.78372882  0.01520220  0.42440624     0.14500
H624        H  0.66960058  0.05065674  0.35112878     0.14300
C625        C  0.14178958  0.00571308  0.32102053     0.86100
C626        C  0.15865705  0.96472647  0.29170731    -0.54100
C627        C  0.20496190  0.96302216  0.28533723     0.09100
C628        C  0.22934668  0.00847714  0.30148632     0.20000
C629        C  0.17651203  0.00751899  0.36325815    -0.54800
C630        C  0.22209737  0.00865036  0.35284479     0.09200
C631        C  0.15346241  0.04738348  0.29225759    -0.54400
C632        C  0.19960259  0.05138131  0.28399658     0.09700
H633        H  0.13762119  0.93590146  0.28035283     0.14200
H634        H  0.26616870  0.00937031  0.29273279     0.00000
H635        H  0.16574172  0.00810797  0.39845576     0.14500
H636        H  0.12795799  0.07448541  0.28406650     0.14300
Zr637      Zr  0.69549184  0.68266044  0.19801778     2.17500
O638        O  0.64201697  0.62754767  0.16104885    -0.51700
O639        O  0.70408675  0.70285658  0.11595028    -0.74900
O640        O  0.61239968  0.71184114  0.19822509    -0.81700
O641        O  0.78637185  0.58768259  0.23747053    -0.83400
O642        O  0.61327603  0.78078884  0.23698333    -0.79100
O643        O  0.71885411  0.59969461  0.19424992    -0.90700
O644        O  0.77825194  0.72418251  0.11220133    -0.76600
O645        O  0.71324002  0.76214565  0.18758266    -0.86100
O646        O  0.77769063  0.68739773  0.19191257    -0.85800
O647        O  0.67464613  0.72058526  0.26859917    -0.72600
O648        O  0.73413822  0.65271300  0.26757778    -0.84700
Zr649      Zr  0.80807841  0.78230292  0.32192198     2.26400
Zr650      Zr  0.69152551  0.80027470  0.25730265     2.06300
Zr651      Zr  0.81561047  0.66210722  0.26275982     2.10000
Zr652      Zr  0.79530931  0.76682901  0.18303571     1.78800
O653        O  0.84535498  0.61187542  0.32459639    -0.93500
O654        O  0.77538416  0.84665091  0.16180190    -0.41300
O655        O  0.83129078  0.74172667  0.25382179    -0.78000
O656        O  0.77304296  0.80994051  0.24975067    -0.96700
O657        O  0.72680594  0.77219268  0.32764360    -0.90000
O658        O  0.79484077  0.70100140  0.33222543    -0.92800
C659        C  0.73835012  0.71619581  0.09321714     1.01000
C660        C  0.75268985  0.57368510  0.21054188     1.13900
C661        C  0.59198503  0.74849641  0.21463194     1.04700
O662        O  0.66114206  0.85165358  0.19675873    -0.95000
O663        O  0.71291577  0.87653605  0.28248904    -0.90700
O664        O  0.77967286  0.86514867  0.32677000    -0.83800
C665        C  0.74572106  0.89107930  0.30983372     1.11300
O666        O  0.64049283  0.65070359  0.32536065    -0.96900
Zr667      Zr  0.71350845  0.69145238  0.33625613     1.88900
O668        O  0.79436000  0.76530332  0.40360872    -0.73600
O669        O  0.64352049  0.83471672  0.31552339    -0.52800
O670        O  0.66131208  0.67703586  0.39737635    -0.97500
O671        O  0.75443076  0.62044231  0.36077240    -0.54700
O672        O  0.71970399  0.74724145  0.39842667    -0.74100
C673        C  0.75754633  0.75233328  0.42219601     0.98300
O674        O  0.86655420  0.83085343  0.36098572    -0.62900
O675        O  0.87007331  0.62513938  0.21222287    -0.57700
O676        O  0.89181984  0.75707564  0.31685889    -0.94400
O677        O  0.89391826  0.68919324  0.27602920    -0.92800
O678        O  0.87884980  0.75995483  0.19894065    -0.93200
O679        O  0.84324249  0.79281826  0.12237518    -0.92000
C680        C  0.91400099  0.72254842  0.29834002     1.17100
H681        H  0.78774596  0.66710831  0.16762634     0.33000
H682        H  0.78140961  0.84153051  0.24535864     0.43900
H683        H  0.81266356  0.68945263  0.35881980     0.37400
H684        H  0.64319927  0.71564175  0.27565768     0.33900
H685        H  0.77716127  0.84900385  0.12807254     0.25700
H686        H  0.61727599  0.85012508  0.29810084     0.31600
H687        H  0.66805545  0.64514206  0.40792890     0.37500
H688        H  0.88850224  0.73196459  0.18162337     0.32000
H689        H  0.87455595  0.59317666  0.22342953     0.30900
H690        H  0.86290748  0.58704691  0.30904602     0.32500
H691        H  0.73049148  0.60073778  0.37279664     0.31500
H692        H  0.85972051  0.82018340  0.13529388     0.35500
H693        H  0.87089407  0.85660066  0.33975665     0.28200
H694        H  0.62353425  0.64504552  0.13720067     0.32500
H695        H  0.64884598  0.62116336  0.31003114     0.35300
H696        H  0.85342244  0.62173240  0.18170864     0.27900
H697        H  0.85121393  0.84520677  0.38740726     0.40800
H698        H  0.63316550  0.86650477  0.20901227     0.30900
H699        H  0.74200496  0.85037824  0.16672414     0.38500
H700        H  0.77557094  0.62770174  0.38773859     0.30300
H701        H  0.62963892  0.80820103  0.33030363     0.30400
H702        H  0.61996386  0.62049269  0.18464904     0.30700
C703        C  0.01868176  0.70064814  0.89108784     0.86100
C704        C  0.97031659  0.71330252  0.87015167    -0.54100
C705        C  0.96553947  0.71296109  0.82318351     0.09100
C706        C  0.01269521  0.70152862  0.80050535     0.20000
C707        C  0.02814454  0.65308796  0.86740475    -0.54800
C708        C  0.02581301  0.65418958  0.81987866     0.09200
C709        C  0.05271868  0.73302988  0.86942285    -0.54400
C710        C  0.05335637  0.73077489  0.82203879     0.09700
H711        H  0.94065201  0.71699960  0.89126428     0.14200
H712        H  0.01009071  0.70339456  0.76235167     0.00000
H713        H  0.03438310  0.62116431  0.88588295     0.14500
H714        H  0.08049034  0.74870489  0.89065610     0.14300
C715        C  0.02006992  0.65098911  0.32588563     0.86100
C716        C  0.97355302  0.67422830  0.33257293    -0.54100
C717        C  0.96486346  0.71399312  0.30903594     0.09100
C718        C  0.00661500  0.72609133  0.27886057     0.20000
C719        C  0.02080035  0.64425356  0.27216078    -0.54800
C720        C  0.01244808  0.68363189  0.24686902     0.09200
C721        C  0.05503651  0.68717723  0.33879568    -0.54400
C722        C  0.05243948  0.72445002  0.31125043     0.09700
H723        H  0.94659018  0.65646783  0.34946066     0.14200
H724        H  0.00096547  0.75944890  0.26102880     0.00000
H725        H  0.02814806  0.61140206  0.25560718     0.14500
H726        H  0.08579671  0.67871295  0.36074893     0.14300
C727        C  0.00955945  0.32383589  0.87628590     0.86100
C728        C  0.05245893  0.29887587  0.85853156    -0.54100
C729        C  0.05236478  0.29329892  0.81172645     0.09100
C730        C  0.00521028  0.30890691  0.78659456     0.20000
C731        C  0.00507018  0.36777391  0.84695877    -0.54800
C732        C  0.00224818  0.35958572  0.80039766     0.09200
C733        C  0.96995831  0.29288575  0.85854292    -0.54400
C734        C  0.96398104  0.28820481  0.81163333     0.09700
H735        H  0.08332050  0.29060918  0.87963150     0.14200
H736        H  0.00348621  0.30264738  0.74873335     0.00000
H737        H  0.00626795  0.40249827  0.86159545     0.14500
H738        H  0.94499662  0.28010496  0.88151509     0.14300
C739        C  0.99073666  0.35807878  0.30611811     0.86100
C740        C  0.04155330  0.34337515  0.30830126    -0.54100
C741        C  0.05167769  0.30717691  0.28063172     0.09100
C742        C  0.00829772  0.28837139  0.25186605     0.20000
C743        C  0.98066700  0.36763858  0.25371425    -0.54800
C744        C  0.99031093  0.33081251  0.22466656     0.09200
C745        C  0.96477548  0.31532718  0.31653175    -0.54400
C746        C  0.96879660  0.28001178  0.28575520     0.09700
H747        H  0.06840000  0.36197571  0.32821253     0.14200
H748        H  0.01838718  0.25786357  0.23107622     0.00000
H749        H  0.96950901  0.40114962  0.24082153     0.14500
H750        H  0.93723208  0.31738181  0.34058730     0.14300
Zr751      Zr  0.19151412  0.21811006  0.29128188     2.17500
O752        O  0.11978426  0.18818695  0.31776572    -0.51700
O753        O  0.20230956  0.22304339  0.37619688    -0.74900
O754        O  0.19064055  0.13349221  0.28525478    -0.81700
O755        O  0.12916582  0.32979537  0.27063623    -0.83400
O756        O  0.25950961  0.10491109  0.26323040    -0.79100
O757        O  0.11490186  0.25343597  0.27791970    -0.90700
O758        O  0.26335613  0.26072122  0.40937234    -0.76600
O759        O  0.27044596  0.20104722  0.31194717    -0.86100
O760        O  0.22243968  0.28943943  0.31994946    -0.85800
O761        O  0.22184353  0.19092800  0.21994846    -0.72600
O762        O  0.18050481  0.27223651  0.22950909    -0.84700
Zr763      Zr  0.32615726  0.30042974  0.21078135     2.26400
Zr764      Zr  0.30165694  0.17476668  0.24127595     2.06300
Zr765      Zr  0.21181356  0.34314974  0.25847705     2.10000
Zr766      Zr  0.30250229  0.27263396  0.34000082     1.78800
O767        O  0.16444072  0.39563226  0.20995683    -0.93500
O768        O  0.34341458  0.21217676  0.38411724    -0.41300
O769        O  0.29238610  0.32819584  0.27970005    -0.78000
O770        O  0.33560605  0.24513009  0.27216669    -0.96700
O771        O  0.29384193  0.23015272  0.18018273    -0.90000
O772        O  0.24703391  0.31802224  0.18924902    -0.92800
C773        C  0.22588497  0.23899735  0.41206944     1.01000
C774        C  0.10149050  0.29573054  0.27503190     1.13900
C775        C  0.21814910  0.09931931  0.27652982     1.04700
O776        O  0.35101091  0.11764883  0.28150090    -0.95000
O777        O  0.38291160  0.18218522  0.22469191    -0.90700
O778        O  0.40093787  0.25724093  0.21331092    -0.83800
C779        C  0.41191908  0.21409086  0.21743380     1.11300
O780        O  0.13563338  0.22181681  0.14253131    -0.96900
Zr781      Zr  0.21434718  0.24772327  0.15994317     1.88900
O782        O  0.31963280  0.29822383  0.12641085    -0.73600
O783        O  0.30398553  0.12711825  0.17156058    -0.52800
O784        O  0.21003546  0.17951552  0.11035730    -0.97500
O785        O  0.16544955  0.30610275  0.12057167    -0.54700
O786        O  0.25636607  0.26484114  0.09222553    -0.74100
C787        C  0.29514905  0.28486620  0.09028177     0.98300
O788        O  0.39180614  0.34890109  0.19700715    -0.62900
O789        O  0.20169791  0.39207408  0.32643085    -0.57700
O790        O  0.32355900  0.38541271  0.21943665    -0.94400
O791        O  0.25391261  0.41311057  0.24095364    -0.92800
O792        O  0.31906394  0.34638490  0.37812232    -0.93200
O793        O  0.38412498  0.28869736  0.35812104    -0.92000
C794        C  0.29517955  0.41916853  0.22811362     1.17100
H795        H  0.20552959  0.30120740  0.34529484     0.33000
H796        H  0.36722028  0.24001038  0.28335227     0.43900
H797        H  0.24475186  0.34201827  0.16649798     0.37400
H798        H  0.20653655  0.16344889  0.20831696     0.33900
H799        H  0.31981311  0.18931593  0.39075151     0.25700
H800        H  0.27137025  0.11858768  0.16441665     0.31600
H801        H  0.20031806  0.19119431  0.07937629     0.37500
H802        H  0.33097315  0.33846607  0.40971300     0.32000
H803        H  0.19491189  0.42333325  0.31420027     0.30900
H804        H  0.15320960  0.41970729  0.23141774     0.32500
H805        H  0.18675605  0.32618651  0.10497728     0.31500
H806        H  0.39410946  0.30589394  0.33137630     0.35500
H807        H  0.41640197  0.34153841  0.22103817     0.28200
H808        H  0.12953152  0.17165620  0.34630438     0.32500
H809        H  0.12786891  0.20473610  0.17019673     0.35300
H810        H  0.17210149  0.38251144  0.33849367     0.27900
H811        H  0.40373034  0.33723921  0.16772723     0.40800
H812        H  0.36930099  0.13573606  0.30499479     0.30900
H813        H  0.36317128  0.19616010  0.36193854     0.38500
H814        H  0.15333843  0.32572833  0.14553183     0.30300
H815        H  0.31118874  0.14835797  0.14673560     0.30400
H816        H  0.10969533  0.16378648  0.29533190     0.30700
C817        C  0.96662377  0.35987750  0.99626740    -0.22800
C818        C  0.00366541  0.34555082  0.02595493     0.09100
C819        C  0.04463706  0.32871485  0.00737416     0.09600
C820        C  0.04674064  0.32372213  0.95942931    -0.17700
C821        C  0.00853422  0.33483137  0.92867550    -0.28200
C822        C  0.96872381  0.35583731  0.94807239     0.17900
C823        C  0.99749071  0.34381194  0.07623148     0.11900
C824        C  0.08619086  0.31543680  0.03842568    -0.12500
H825        H  0.07887206  0.31069958  0.94723691     0.12100
C826        C  0.92812583  0.37487928  0.91885082    -0.23300
H827        H  0.93555962  0.37369757  0.01104390     0.07800
C828        C  0.00456824  0.38210451  0.10599567     0.04100
C829        C  0.00148870  0.37665961  0.15376954    -0.20600
C830        C  0.98980210  0.33408176  0.17278770    -0.12900
C831        C  0.98063250  0.29617169  0.14158599     0.12800
C832        C  0.98550373  0.30171582  0.09430034    -0.23300
C833        C  0.01582266  0.42848100  0.08730910    -0.06400
H834        H  0.00945746  0.40588937  0.17629405     0.14400
C835        C  0.96394064  0.24940505  0.15442220    -0.16500
H836        H  0.97940872  0.27264327  0.07083496     0.08700
H837        H  0.93922132  0.40290306  0.89725166     0.06500
H838        H  0.90036799  0.38913425  0.94009331     0.07700
H839        H  0.91268455  0.34848256  0.89569568     0.06800
H840        H  0.07732283  0.28700468  0.06128389     0.01700
H841        H  0.09726089  0.34578377  0.05983210     0.02100
H842        H  0.11598856  0.30355408  0.01856355     0.05600
H843        H  0.02059869  0.45492453  0.11520461     0.04600
H844        H  0.98706402  0.44045738  0.06313490    -0.01200
H845        H  0.04824939  0.42574661  0.06870477     0.00300
H846        H  0.93155064  0.24146302  0.13361944     0.04000
H847        H  0.95557498  0.24653730  0.19034529     0.05900
H848        H  0.99053523  0.22258363  0.14683951     0.06800
C849        C  0.95490809  0.47356429  0.35779512    -0.22800
C850        C  0.99259840  0.47733594  0.39017704     0.09100
C851        C  0.01499478  0.43730904  0.40727943     0.09600
C852        C  0.00679781  0.39582345  0.38358455    -0.17700
C853        C  0.98034462  0.39573285  0.34118004    -0.28200
C854        C  0.94805032  0.43240214  0.33290434     0.19500
C855        C  0.01797433  0.52019432  0.38845608     0.11900
C856        C  0.05104999  0.43946998  0.44662907    -0.12500
H857        H  0.02617437  0.36512973  0.39457519     0.12100
C858        C  0.90675236  0.42958878  0.29900157    -0.23300
H859        H  0.93508034  0.50423165  0.34738131     0.07800
C860        C  0.04730483  0.52608333  0.35184283     0.04100
C861        C  0.05304698  0.57040238  0.33564990    -0.20600
C862        C  0.02901933  0.60799273  0.35455744    -0.12900
C863        C  0.01156748  0.60281988  0.39894618     0.12800
C864        C  0.00370219  0.55833132  0.41415717    -0.23300
C865        C  0.06857539  0.48559006  0.32673958    -0.06400
H866        H  0.07366575  0.57493529  0.30624582     0.14400
C867        C  0.00137375  0.64252104  0.43107053    -0.16500
H868        H  0.98415799  0.55345339  0.44437075     0.08700
H869        H  0.90153743  0.39415065  0.28496937     0.06500
H870        H  0.87491909  0.43938245  0.31673410     0.07700
H871        H  0.91055173  0.45390158  0.27037150     0.06800
H872        H  0.03499780  0.45346961  0.47781768     0.01700
H873        H  0.07952862  0.46213266  0.43790055     0.02100
H874        H  0.06625703  0.40480301  0.45467557     0.05600
H875        H  0.09081459  0.49695253  0.29932843     0.04600
H876        H  0.04112518  0.46384868  0.31002078    -0.01200
H877        H  0.09047874  0.46451392  0.35134246     0.00300
H878        H  0.02240543  0.63810910  0.46396331     0.04000
H879        H  0.96435303  0.64251355  0.43871750     0.05900
H880        H  0.01021994  0.67639652  0.41733395     0.06800
C881        C  0.97261551  0.47326556  0.74776218    -0.22800
C882        C  0.01570939  0.48320974  0.73069587     0.09100
C883        C  0.04788063  0.44696241  0.72336883     0.09600
C884        C  0.04023079  0.40378145  0.74220466    -0.17700
C885        C  0.00088216  0.39696704  0.76709389    -0.28200
C886        C  0.96476221  0.43025518  0.76608458     0.17900
C887        C  0.03123016  0.53084382  0.73885335     0.11900
C888        C  0.09125811  0.45486406  0.69847624    -0.12500
H889        H  0.06691672  0.37702555  0.74134132     0.12100
C890        C  0.91892091  0.42242471  0.78660673    -0.23300
H891        H  0.94731463  0.50073923  0.75287704     0.07800
C892        C  0.00381461  0.56854795  0.72274556     0.04100
C893        C  0.00398240  0.60933455  0.74904317    -0.20600
C894        C  0.03333227  0.61399192  0.78915654    -0.12900
C895        C  0.06747122  0.57955518  0.79938794     0.12800
C896        C  0.06462114  0.53755654  0.77535864    -0.23300
C897        C  0.97305534  0.56495335  0.67916934    -0.06400
H898        H  0.97889450  0.63626105  0.73956276     0.14400
C899        C  0.10702243  0.58558033  0.83504861    -0.16500
H900        H  0.08644224  0.50890085  0.78759507     0.08700
H901        H  0.89055711  0.42678824  0.75951069     0.06500
H902        H  0.91356484  0.44803310  0.81467178     0.07700
H903        H  0.91636742  0.38732668  0.80073201     0.06800
H904        H  0.11329154  0.48092547  0.71683845     0.01700
H905        H  0.08160335  0.46728352  0.66322275     0.02100
H906        H  0.11229564  0.42258570  0.69537567     0.05600
H907        H  0.95527654  0.59837462  0.67085105     0.04600
H908        H  0.94610573  0.53875340  0.68228223    -0.01200
H909        H  0.99444707  0.55505983  0.64993773     0.00300
H910        H  0.10308839  0.56196684  0.86421665     0.04000
H911        H  0.10981250  0.62153123  0.84831273     0.05900
H912        H  0.14022746  0.57705409  0.81919995     0.06800
C913        C  0.00206538  0.65445017  0.11569608    -0.22800
C914        C  0.01921141  0.69420690  0.09624405     0.09100
C915        C  0.03193718  0.73126212  0.12657648     0.09600
C916        C  0.03039077  0.72611162  0.17485855    -0.17700
C917        C  0.01300901  0.68622191  0.19454644    -0.28200
C918        C  0.99694672  0.65058223  0.16357828     0.17900
C919        C  0.02183515  0.69652054  0.04427932     0.11900
C920        C  0.04701280  0.77665941  0.10846249    -0.12500
H921        H  0.04283616  0.75392527  0.19728287     0.12100
C922        C  0.97132066  0.60918882  0.17854761    -0.23300
H923        H  0.99044444  0.62679012  0.09280350     0.07800
C924        C  0.04950541  0.66542014  0.01884005     0.04100
C925        C  0.04860220  0.66782695  0.97006839    -0.20600
C926        C  0.02220380  0.70177909  0.94506537    -0.12900
C927        C  0.99964253  0.73643303  0.97177296     0.12800
C928        C  0.99674227  0.73107736  0.01971125    -0.23300
C929        C  0.08129148  0.63039783  0.04298244    -0.06400
H930        H  0.06993781  0.64350304  0.95176825     0.14400
C931        C  0.97977785  0.78095344  0.95207598    -0.16500
H932        H  0.97534364  0.75523550  0.03824087     0.08700
H933        H  0.99304813  0.57748205  0.17463113     0.06500
H934        H  0.93891882  0.60555809  0.15659184     0.07700
H935        H  0.96025767  0.61225763  0.21418989     0.06800
H936        H  0.01712704  0.79526392  0.09131973     0.01700
H937        H  0.07415261  0.77098747  0.08344563     0.02100
H938        H  0.06070866  0.79960835  0.13667710     0.05600
H939        H  0.10245787  0.61073232  0.01835410     0.04600
H940        H  0.06102148  0.60507290  0.06115339    -0.01200
H941        H  0.10536151  0.64823644  0.06824327     0.00300
H942        H  0.94153484  0.78175184  0.95390852     0.04000
H943        H  0.98881850  0.78673371  0.91621661     0.05900
H944        H  0.99421649  0.81049661  0.97269014     0.06800
C945        C  0.92034512  0.00643531  0.31677777    -0.22800
C946        C  0.94492808  0.00039494  0.35881205     0.09100
C947        C  0.92066098  0.99171496  0.39816531     0.09600
C948        C  0.87174284  0.99249601  0.39486889    -0.17700
C949        C  0.84584288  0.99862039  0.35228504    -0.28200
C950        C  0.87204121  0.00269395  0.31200023     0.17900
C951        C  0.99628331  0.99888103  0.35817350     0.11900
C952        C  0.94648575  0.98012025  0.44311910    -0.12500
H953        H  0.85414354  0.98579860  0.42577689     0.12100
C954        C  0.85256616  0.99976132  0.26287853    -0.23300
H955        H  0.93999557  0.01102189  0.28654568     0.07800
C956        C  0.01937363  0.95948565  0.34151633     0.04100
C957        C  0.06594871  0.96224704  0.33102452    -0.20600
C958        C  0.09105307  0.00379807  0.33603196    -0.12900
C959        C  0.06851127  0.04168013  0.35834547     0.12800
C960        C  0.02132988  0.03904938  0.36758051    -0.23300
C961        C  0.99455635  0.91433437  0.33440716    -0.06400
H962        H  0.08192818  0.93068975  0.31977852     0.14400
C963        C  0.09203758  0.08566600  0.37372175    -0.16500
H964        H  0.00374063  0.06901916  0.38160163     0.08700
H965        H  0.84090775  0.96411071  0.25500271     0.06500
H966        H  0.87886252  0.00633772  0.23751389     0.07700
H967        H  0.82507086  0.02594730  0.25630631     0.06800
H968        H  0.97133829  0.00761659  0.45305648     0.01700
H969        H  0.96624494  0.94718156  0.43925839     0.02100
H970        H  0.92269545  0.97632434  0.47141107     0.05600
H971        H  0.01775744  0.88636662  0.32196227     0.04600
H972        H  0.96505701  0.91838806  0.30852949    -0.01200
H973        H  0.98128158  0.90327134  0.36747420     0.00300
H974        H  0.07428266  0.11509727  0.35573194     0.04000
H975        H  0.12931455  0.08632436  0.36771292     0.05900
H976        H  0.08885016  0.09075876  0.41133191     0.06800
C977        C  0.35641836  0.02181888  0.54022940    -0.22800
C978        C  0.33569434  0.05316448  0.50855145     0.09100
C979        C  0.30368302  0.08588872  0.52531525     0.09600
C980        C  0.27998735  0.07464187  0.56395909    -0.17700
C981        C  0.29035416  0.03329561  0.58715803    -0.28200
C982        C  0.33195092  0.00883088  0.57822282     0.17900
C983        C  0.32063779  0.03195332  0.46368261     0.11900
C984        C  0.28951190  0.12885935  0.49906530    -0.12500
H985        H  0.25109658  0.09629608  0.57394992     0.12100
C986        C  0.34873000  0.96620468  0.60364247    -0.23300
H987        H  0.38423592  0.99932881  0.52919347     0.07800
C988        C  0.32650025  0.05316540  0.42128791     0.04100
C989        C  0.29568708  0.04262560  0.38370067    -0.20600
C990        C  0.26081082  0.01008992  0.38790702    -0.12900
C991        C  0.26141857  0.98250843  0.42739773     0.12800
C992        C  0.29045475  0.99456623  0.46520447    -0.23300
C993        C  0.36452079  0.08690363  0.41616361    -0.06400
H994        H  0.29700227  0.06195266  0.35222291     0.14400
C995        C  0.23150440  0.94086869  0.43125695    -0.16500
H996        H  0.28706308  0.97640883  0.49709641     0.08700
H997        H  0.38270898  0.97304407  0.62200405     0.06500
H998        H  0.35314034  0.93721866  0.57868424     0.07700
H999        H  0.32452398  0.95451578  0.62880075     0.06800
H1000       H  0.27525280  0.12000029  0.46385372     0.01700
H1001       H  0.31990485  0.15132816  0.49706985     0.02100
H1002       H  0.26245537  0.14923341  0.51650795     0.05600
H1003       H  0.36512608  0.09917276  0.38025168     0.04600
H1004       H  0.39819737  0.06953290  0.42543991    -0.01200
H1005       H  0.36035659  0.11730270  0.43909762     0.00300
H1006       H  0.25357044  0.91061532  0.44187351     0.04000
H1007       H  0.21320396  0.93127054  0.39809116     0.05900
H1008       H  0.20576610  0.94759959  0.45759280     0.06800
C1009       C  0.66812621  0.93100082  0.53712180    -0.22800
C1010       C  0.63451555  0.96621357  0.54120153     0.09100
C1011       C  0.62633839  0.98341804  0.58519447     0.09600
C1012       C  0.66292243  0.98145974  0.61878645    -0.17700
C1013       C  0.70453624  0.95810233  0.60887500    -0.28200
C1014       C  0.70409812  0.92680831  0.57091863     0.17900
C1015       C  0.63237355  0.99837885  0.50246886     0.11900
C1016       C  0.58188298  0.00886694  0.59355720    -0.12500
H1017       H  0.66033291  0.00229997  0.64975819     0.12100
C1018       C  0.74155328  0.89085739  0.56376834    -0.23300
H1019       H  0.67142139  0.91318802  0.50431039     0.07800
C1020       C  0.66967418  0.02919604  0.50059535     0.04100
C1021       C  0.69604004  0.02778485  0.46194671    -0.20600
C1022       C  0.68256587  0.00044393  0.42354059    -0.12900
C1023       C  0.63655894  0.98262614  0.42093090     0.12800
C1024       C  0.61258536  0.98087581  0.46120662    -0.23300
C1025       C  0.68532581  0.06032495  0.54018464    -0.06400
H1026       H  0.72695866  0.04816898  0.46225366     0.14400
C1027       C  0.61179881  0.96313353  0.37785655    -0.16500
H1028       H  0.58176268  0.96021871  0.46171641     0.08700
H1029       H  0.72565060  0.85679201  0.55631010     0.06500
H1030       H  0.76151377  0.90008245  0.53386412     0.07700
H1031       H  0.76538145  0.88673006  0.59479407     0.06800
H1032       H  0.55287547  0.98431998  0.59054301     0.01700
H1033       H  0.57523005  0.03555110  0.56708332     0.02100
H1034       H  0.58265427  0.02524257  0.62841830     0.05600
H1035       H  0.68755993  0.09622087  0.52774546     0.04600
H1036       H  0.72000617  0.04886064  0.55456950    -0.01200
H1037       H  0.66077200  0.06141507  0.56786582     0.00300
H1038       H  0.60534022  0.92587961  0.38246220     0.04000
H1039       H  0.63032713  0.96685058  0.34605652     0.05900
H1040       H  0.57791301  0.98148985  0.37201102     0.06800
C1041       C  0.94237822  0.02721489  0.59951636    -0.22800
C1042       C  0.97548984  0.99524720  0.61746188     0.09100
C1043       C  0.96015734  0.95394461  0.63604583     0.09600
C1044       C  0.91269507  0.94783878  0.64063295    -0.17700
C1045       C  0.87957281  0.98309520  0.62993235    -0.28200
C1046       C  0.89458200  0.02103762  0.60411140     0.17900
C1047       C  0.02565057  0.00688643  0.62177808     0.11900
C1048       C  0.99404109  0.91653364  0.65251575    -0.12500
H1049       H  0.90238462  0.91537268  0.65384124     0.12100
C1050       C  0.86189154  0.05638616  0.58166370    -0.23300
H1051       H  0.95385448  0.05819931  0.58354354     0.07800
C1052       C  0.05421752  0.00762476  0.58411844     0.04100
C1053       C  0.10260246  0.01197579  0.59220425    -0.20600
C1054       C  0.12367359  0.01435252  0.63738420    -0.12900
C1055       C  0.09376412  0.01497634  0.67505379     0.12800
C1056       C  0.04567962  0.01294114  0.66626303    -0.23300
C1057       C  0.03390018  0.00195634  0.53556200    -0.06400
H1058       H  0.12356792  0.01111093  0.56272928     0.14400
C1059       C  0.11104382  0.01616225  0.72532258    -0.16500
H1060       H  0.02319239  0.01338165  0.69487475     0.08700
H1061       H  0.86794415  0.05782031  0.54431182     0.06500
H1062       H  0.86848505  0.09097839  0.59743888     0.07700
H1063       H  0.82495480  0.04848515  0.58444327     0.06800
H1064       H  0.01673199  0.92916183  0.68187360     0.01700
H1065       H  0.01573059  0.90529954  0.62393532     0.02100
H1066       H  0.97613594  0.88596828  0.66486098     0.05600
H1067       H  0.06082210  0.00311071  0.50988597     0.04600
H1068       H  0.00830400  0.03015253  0.52778089    -0.01200
H1069       H  0.01634697  0.96828077  0.53163917     0.00300
H1070       H  0.08238298  0.01247017  0.74875163     0.04000
H1071       H  0.12709438  0.04953156  0.73485394     0.05900
H1072       H  0.13579056  0.98734948  0.73313651     0.06800
C1073       C  0.34905732  0.99863619  0.04327048    -0.22800
C1074       C  0.33131211  0.02433024  0.00548985     0.09100
C1075       C  0.30732482  0.00079722  0.96898784     0.09600
C1076       C  0.30252391  0.95251005  0.97058405    -0.17700
C1077       C  0.32260724  0.92535299  0.00710776    -0.28200
C1078       C  0.34550861  0.95001910  0.04470722     0.17900
C1079       C  0.33606439  0.07603128  0.00566518     0.11900
C1080       C  0.28556690  0.02693324  0.92851826    -0.12500
H1081       H  0.28185639  0.93713102  0.94277290     0.12100
C1082       C  0.36670475  0.92729909  0.08759747    -0.23300
H1083       H  0.36582091  0.01686762  0.07231674     0.07800
C1084       C  0.30833776  0.10534953  0.03249814     0.04100
C1085       C  0.31323116  0.15383377  0.03123761    -0.20600
C1086       C  0.34531191  0.17419426  0.00350816    -0.12900
C1087       C  0.37190602  0.14459935  0.97522053     0.12800
C1088       C  0.36715870  0.09620312  0.97697888    -0.23300
C1089       C  0.27278683  0.08509765  0.06163934    -0.06400
H1090       H  0.29217422  0.17592361  0.05241337     0.14400
C1091       C  0.40350673  0.16362692  0.94103616    -0.16500
H1092       H  0.38773413  0.07382816  0.95557407     0.08700
H1093       H  0.35088329  0.94261317  0.11839393     0.06500
H1094       H  0.40449169  0.93359403  0.09052202     0.07700
H1095       H  0.36201627  0.88967633  0.08875027     0.06800
H1096       H  0.31274054  0.04449549  0.91028901     0.01700
H1097       H  0.26036205  0.05314432  0.94076695     0.02100
H1098       H  0.26690087  0.00377953  0.90324024     0.05600
H1099       H  0.25266815  0.11223038  0.07919169     0.04600
H1100       H  0.29005370  0.06273849  0.08838631    -0.01200
H1101       H  0.24815044  0.06427948  0.03961431     0.00300
H1102       H  0.43464515  0.17861241  0.95892543     0.04000
H1103       H  0.38464577  0.19045748  0.92013641     0.05900
H1104       H  0.41577876  0.13630422  0.91712925     0.06800
C1105       C  0.57417404  0.28352262  0.98392011    -0.22800
C1106       C  0.57607347  0.32336197  0.01189642     0.09100
C1107       C  0.61732287  0.33529444  0.03642574     0.09600
C1108       C  0.65511082  0.30451034  0.03565504    -0.17700
C1109       C  0.65136130  0.26171880  0.01215717    -0.28200
C1110       C  0.61117627  0.25214367  0.98398538     0.17900
C1111       C  0.53126650  0.34290350  0.02344281     0.11900
C1112       C  0.62068564  0.37961583  0.06403354    -0.12500
H1113       H  0.68697611  0.31326091  0.05485896     0.12100
C1114       C  0.60658254  0.20942443  0.95379497    -0.23300
H1115       H  0.54196709  0.27503669  0.96493775     0.07800
C1116       C  0.50196144  0.36194338  0.98846380     0.04100
C1117       C  0.45465500  0.35323232  0.98800053    -0.20600
C1118       C  0.43689568  0.32260018  0.01981350    -0.12900
C1119       C  0.46614316  0.30995567  0.05909022     0.12800
C1120       C  0.51253380  0.32240336  0.06105906    -0.23300
C1121       C  0.52171664  0.38692376  0.94916823    -0.06400
H1122       H  0.43332984  0.36800120  0.96036290     0.14400
C1123       C  0.45240870  0.27949464  0.09763236    -0.16500
H1124       H  0.53580014  0.30860622  0.08836678     0.08700
H1125       H  0.57476658  0.21095702  0.93049447     0.06500
H1126       H  0.60420478  0.17829094  0.97501335     0.07700
H1127       H  0.63663193  0.20581738  0.93205121     0.06800
H1128       H  0.59549277  0.37973189  0.09139330     0.01700
H1129       H  0.61278990  0.40939100  0.04109216     0.02100
H1130       H  0.65590122  0.38403430  0.08068114     0.05600
H1131       H  0.49432064  0.39786462  0.92306389     0.04600
H1132       H  0.54640100  0.36412331  0.93121144    -0.01200
H1133       H  0.54032128  0.41785005  0.96278579     0.00300
H1134       H  0.47259628  0.24647800  0.09665148     0.04000
H1135       H  0.41544074  0.27087277  0.09665255     0.05900
H1136       H  0.46104702  0.29682188  0.13126003     0.06800
C1137       C  0.47116188  0.74075299  0.96156708    -0.22800
C1138       C  0.47492499  0.70068444  0.98801163     0.09100
C1139       C  0.43968250  0.69050873  0.01740539     0.09600
C1140       C  0.40502017  0.72389724  0.02465117    -0.17700
C1141       C  0.40442979  0.76671970  0.00231823    -0.28200
C1142       C  0.43701553  0.77437292  0.96881261     0.17900
C1143       C  0.52270631  0.68393889  0.99822370     0.11900
C1144       C  0.43980100  0.64502438  0.04185251    -0.12500
H1145       H  0.37888063  0.71689496  0.04868636     0.12100
C1146       C  0.43742844  0.81781132  0.94093137    -0.23300
H1147       H  0.49847892  0.74844580  0.93900132     0.07800
C1148       C  0.55160205  0.67249916  0.96204280     0.04100
C1149       C  0.59757485  0.68716971  0.96517817    -0.20600
C1150       C  0.61404699  0.71355654  0.00333455    -0.12900
C1151       C  0.58697579  0.71923662  0.04177752     0.12800
C1152       C  0.54239049  0.70202962  0.03966103    -0.23300
C1153       C  0.53298645  0.64953203  0.91824812    -0.06400
H1154       H  0.61909657  0.68154873  0.93621207     0.14400
C1155       C  0.60182608  0.74737781  0.08365562    -0.16500
H1156       H  0.52041038  0.71075783  0.06769646     0.08700
H1157       H  0.46174368  0.81451796  0.91280952     0.06500
H1158       H  0.44950296  0.84717730  0.96303056     0.07700
H1159       H  0.40248377  0.82544548  0.92486904     0.06800
H1160       H  0.47153024  0.64080862  0.06484174     0.01700
H1161       H  0.43861330  0.61637625  0.01595428     0.02100
H1162       H  0.40935413  0.64224549  0.06312253     0.05600
H1163       H  0.55467658  0.61857503  0.91069659     0.04600
H1164       H  0.53389306  0.67380884  0.88919427    -0.01200
H1165       H  0.49677378  0.63834196  0.92102937     0.00300
H1166       H  0.57940098  0.77879773  0.08454396     0.04000
H1167       H  0.63825888  0.75818652  0.08429685     0.05900
H1168       H  0.59754409  0.72686014  0.11477284     0.06800
C1169       C  0.69866638  0.93103866  0.04479313    -0.22800
C1170       C  0.72314134  0.95463944  0.01268875     0.09100
C1171       C  0.74350921  0.92945345  0.97705784     0.09600
C1172       C  0.73847905  0.88137975  0.97389763    -0.17700
C1173       C  0.71283406  0.85678801  0.00511607    -0.28200
C1174       C  0.69322697  0.88277765  0.04192078     0.17900
C1175       C  0.72593904  0.00596534  0.01599666     0.11900
C1176       C  0.77043115  0.95341617  0.94181680    -0.12500
H1177       H  0.75631858  0.86376843  0.94717666     0.12100
C1178       C  0.66699379  0.86088342  0.07928863    -0.23300
H1179       H  0.68369100  0.95078150  0.07244031     0.07800
C1180       C  0.68800345  0.03454859  0.00186729     0.04100
C1181       C  0.69258251  0.08270790  0.00345759    -0.20600
C1182       C  0.73435956  0.10411688  0.01890618    -0.12900
C1183       C  0.77368835  0.07455091  0.02893481     0.12800
C1184       C  0.76824295  0.02629071  0.02933261    -0.23300
C1185       C  0.64314118  0.01418744  0.98296847    -0.06400
H1186       H  0.66344690  0.10338363  0.99017541     0.14400
C1187       C  0.82234320  0.09222486  0.03583153    -0.16500
H1188       H  0.79779412  0.00396052  0.03843686     0.08700
H1189       H  0.63542279  0.84411009  0.06474858     0.06500
H1190       H  0.65547118  0.88691390  0.10490061     0.07700
H1191       H  0.68873122  0.83527860  0.09877673     0.06800
H1192       H  0.80093641  0.97049765  0.95894990     0.01700
H1193       H  0.74791447  0.97969909  0.92373689     0.02100
H1194       H  0.78335884  0.92888645  0.91553193     0.05600
H1195       H  0.61731294  0.04126498  0.97186990     0.04600
H1196       H  0.62792106  0.99357508  0.00976870    -0.01200
H1197       H  0.64961222  0.99158833  0.95268280     0.00300
H1198       H  0.82820515  0.10787484  0.07056469     0.04000
H1199       H  0.82919912  0.11739581  0.00879678     0.05900
H1200       H  0.84850728  0.06381272  0.03327675     0.06800
C1201       C  0.53663723  0.96973573  0.74819521    -0.22800
C1202       C  0.49747205  0.98036685  0.77302474     0.09100
C1203       C  0.46552493  0.94554197  0.78064533     0.09600
C1204       C  0.47006406  0.90293063  0.75753583    -0.17700
C1205       C  0.50593468  0.89505738  0.72763289    -0.28200
C1206       C  0.54151465  0.92730346  0.72574473     0.17900
C1207       C  0.48395709  0.02959818  0.77452259     0.11900
C1208       C  0.42596920  0.95416973  0.81147843    -0.12500
H1209       H  0.44401150  0.87695805  0.76045416     0.12100
C1210       C  0.58421632  0.91882250  0.69925930    -0.23300
H1211       H  0.56145289  0.99626156  0.74229471     0.07800
C1212       C  0.51630922  0.06293770  0.79024227     0.04100
C1213       C  0.51784704  0.10443873  0.76634845    -0.20600
C1214       C  0.48637693  0.11323265  0.72878354    -0.12900
C1215       C  0.44808291  0.08426380  0.72019593     0.12800
C1216       C  0.44772271  0.04235620  0.74281224    -0.23300
C1217       C  0.55070478  0.05317963  0.83000904    -0.06400
H1218       H  0.54544120  0.12838898  0.77489925     0.14400
C1219       C  0.40788152  0.09544200  0.68659485    -0.16500
H1220       H  0.42210578  0.01735178  0.73102940     0.08700
H1221       H  0.61559042  0.92512958  0.72218054     0.06500
H1222       H  0.58387071  0.94268785  0.66980197     0.07700
H1223       H  0.58713649  0.88290355  0.68620199     0.06800
H1224       H  0.40281601  0.98253564  0.79833951     0.01700
H1225       H  0.43995985  0.96362090  0.84668006     0.02100
H1226       H  0.40457578  0.92308133  0.81392627     0.05600
H1227       H  0.57361157  0.08294429  0.83769720     0.04600
H1228       H  0.57290791  0.02264941  0.82246771    -0.01200
H1229       H  0.53176372  0.04639411  0.86127376     0.00300
H1230       H  0.40644353  0.06955931  0.65795124     0.04000
H1231       H  0.37509327  0.09444129  0.70460293     0.05900
H1232       H  0.40977660  0.13024591  0.67195575     0.06800
C1233       C  0.53412990  0.15282685  0.50302394    -0.22800
C1234       C  0.49983599  0.17302806  0.47375649     0.09100
C1235       C  0.46344005  0.19811286  0.49325724     0.09600
C1236       C  0.46354965  0.20479058  0.54144257    -0.17700
C1237       C  0.49842336  0.18528659  0.57192120    -0.28200
C1238       C  0.53337717  0.15744879  0.55134346     0.17900
C1239       C  0.50338756  0.16838170  0.42276505     0.11900
C1240       C  0.42371477  0.21690893  0.46301875    -0.12500
H1241       H  0.43543186  0.22512241  0.55414225     0.12100
C1242       C  0.57000324  0.13124316  0.57946872    -0.23300
H1243       H  0.56152233  0.13272364  0.48777856     0.07800
C1244       C  0.52514790  0.20215317  0.39781259     0.04100
C1245       C  0.52726655  0.19699467  0.34979897    -0.20600
C1246       C  0.50831108  0.15873517  0.32522899    -0.12900
C1247       C  0.48765920  0.12397891  0.35089631     0.12800
C1248       C  0.48560284  0.12943283  0.39917178    -0.23300
C1249       C  0.54657791  0.24360470  0.42200663    -0.06400
H1250       H  0.54453426  0.22323750  0.33149562     0.14400
C1251       C  0.46685304  0.08139780  0.32846236    -0.16500
H1252       H  0.47018793  0.10302677  0.41886789     0.08700
H1253       H  0.59597511  0.11453633  0.55765888     0.06500
H1254       H  0.55431267  0.10411323  0.59926590     0.07700
H1255       H  0.58851998  0.15451507  0.60361086     0.06800
H1256       H  0.40669937  0.18771663  0.44417762     0.01700
H1257       H  0.43645960  0.24132890  0.43785120     0.02100
H1258       H  0.39738348  0.23527199  0.48324286     0.05600
H1259       H  0.56222927  0.26689375  0.39749513     0.04600
H1260       H  0.57425596  0.23207310  0.44758427    -0.01200
H1261       H  0.51984015  0.26371971  0.44005807     0.00300
H1262       H  0.49475595  0.05765258  0.31740188     0.04000
H1263       H  0.44303666  0.09084055  0.29867245     0.05900
H1264       H  0.44668656  0.06194249  0.35278782     0.06800
C1265       C  0.52595551  0.77452639  0.39900277    -0.22800
C1266       C  0.50599210  0.81325309  0.42020196     0.09100
C1267       C  0.49107178  0.85073073  0.39210955     0.09600
C1268       C  0.49532129  0.84789214  0.34376576    -0.17700
C1269       C  0.51522751  0.80879053  0.32201820    -0.28200
C1270       C  0.53181295  0.77214118  0.35111024     0.17900
C1271       C  0.50284499  0.81380941  0.47192466     0.11900
C1272       C  0.46977782  0.89342657  0.41305704    -0.12500
H1273       H  0.48203168  0.87629643  0.32278309     0.12100
C1274       C  0.55864235  0.73090421  0.33436199    -0.23300
H1275       H  0.53857634  0.74614240  0.42047197     0.07800
C1276       C  0.47109933  0.78651601  0.49389285     0.04100
C1277       C  0.47183268  0.78504184  0.54247850    -0.20600
C1278       C  0.50340879  0.81066393  0.57138959    -0.12900
C1279       C  0.53636424  0.83706217  0.54847902     0.12800
C1280       C  0.53481616  0.83890864  0.49976509    -0.23300
C1281       C  0.43529736  0.75962684  0.46591360    -0.06400
H1282       H  0.44795820  0.76214110  0.55696932     0.14400
C1283       C  0.57490358  0.86335608  0.57317202    -0.16500
H1284       H  0.56011300  0.85909181  0.48320144     0.08700
H1285       H  0.53857044  0.69910007  0.33827883     0.06500
H1286       H  0.59194705  0.72781618  0.35514060     0.07700
H1287       H  0.56757482  0.73372905  0.29841227     0.06800
H1288       H  0.49512212  0.90965547  0.43818475     0.01700
H1289       H  0.43851331  0.88409794  0.43101271     0.02100
H1290       H  0.45933013  0.91936965  0.38651139     0.05600
H1291       H  0.41218216  0.74063351  0.48787500     0.04600
H1292       H  0.45217153  0.73418857  0.44300824    -0.01200
H1293       H  0.41375928  0.78435764  0.44503626     0.00300
H1294       H  0.60829038  0.85312417  0.55857866     0.04000
H1295       H  0.57879968  0.85701654  0.61037695     0.05900
H1296       H  0.56875683  0.90082285  0.56789349     0.06800
C1297       C  0.56724272  0.02658681  0.13852331    -0.22800
C1298       C  0.53093481  0.01307272  0.10790009     0.09100
C1299       C  0.49746424  0.04588010  0.09298925     0.09600
C1300       C  0.49319322  0.08681056  0.11852637    -0.17700
C1301       C  0.52192981  0.09471116  0.15884395    -0.28200
C1302       C  0.56254431  0.06621853  0.16590141     0.17900
C1303       C  0.51529521  0.96668737  0.11689871     0.11900
C1304       C  0.46398585  0.03513108  0.05294135    -0.12500
H1305       H  0.46654990  0.11126469  0.10708438     0.12100
C1306       C  0.60072687  0.07392524  0.20292735    -0.23300
H1307       H  0.59481505  0.00182624  0.14765081     0.07800
C1308       C  0.53657861  0.92718827  0.09901512     0.04100
C1309       C  0.53229431  0.88525584  0.12138608    -0.20600
C1310       C  0.50876492  0.88284651  0.16273775    -0.12900
C1311       C  0.48262433  0.92230269  0.17677324     0.12800
C1312       C  0.48642424  0.96337216  0.15352978    -0.23300
C1313       C  0.56473094  0.93011722  0.05737657    -0.06400
H1314       H  0.54814712  0.85513647  0.10624426     0.14400
C1315       C  0.45170155  0.92442070  0.21699106    -0.16500
H1316       H  0.46948568  0.99431983  0.16657080     0.08700
H1317       H  0.63441088  0.07559272  0.18661868     0.06500
H1318       H  0.60228917  0.04451036  0.22704366     0.07700
H1319       H  0.59714169  0.10589220  0.22360897     0.06800
H1320       H  0.44553676  0.00294908  0.05938885     0.01700
H1321       H  0.48326844  0.03006484  0.02127393     0.02100
H1322       H  0.43802787  0.06348816  0.04696032     0.05600
H1323       H  0.57600409  0.89553785  0.04502630     0.04600
H1324       H  0.59576245  0.95098793  0.06621983    -0.01200
H1325       H  0.54366448  0.94669319  0.02881781     0.00300
H1326       H  0.46756819  0.94679714  0.24475150     0.04000
H1327       H  0.44430017  0.89076757  0.23182240     0.05900
H1328       H  0.41781472  0.94011762  0.20541175     0.06800
C1329       C  0.83874300  0.56163786  0.98019813    -0.22800
C1330       C  0.87697250  0.53137533  0.97726365     0.09100
C1331       C  0.88498779  0.51143331  0.93442318     0.09600
C1332       C  0.84686029  0.50442086  0.90334790    -0.17700
C1333       C  0.80309204  0.52401492  0.91251099    -0.28200
C1334       C  0.80107781  0.55810761  0.94805544     0.17900
C1335       C  0.88393686  0.50143074  0.01752942     0.11900
C1336       C  0.93269781  0.49398411  0.92499625    -0.12500
H1337       H  0.85117719  0.48138585  0.87422525     0.12100
C1338       C  0.76043540  0.59068597  0.95370744    -0.23300
H1339       H  0.83464511  0.58197912  0.01142576     0.07800
C1340       C  0.89517518  0.52191655  0.06043303     0.04100
C1341       C  0.86811823  0.51217610  0.09702072    -0.20600
C1342       C  0.82946052  0.48315596  0.09024136    -0.12900
C1343       C  0.82882983  0.45214072  0.05199543     0.12800
C1344       C  0.85675387  0.46163023  0.01582528    -0.23300
C1345       C  0.93153451  0.55793875  0.06616607    -0.06400
H1346       H  0.87589935  0.52960901  0.12968165     0.14400
C1347       C  0.79867089  0.41026326  0.04690342    -0.16500
H1348       H  0.85113846  0.44256936  0.98365813     0.08700
H1349       H  0.77314436  0.62628433  0.95966676     0.06500
H1350       H  0.74143382  0.58081178  0.98405965     0.07700
H1351       H  0.73655345  0.59187121  0.92249916     0.06800
H1352       H  0.94430633  0.46723032  0.95025826     0.01700
H1353       H  0.95710982  0.52307359  0.92847046     0.02100
H1354       H  0.93395215  0.47995088  0.88940497     0.05600
H1355       H  0.95782620  0.54715428  0.09343923     0.04600
H1356       H  0.91518795  0.59139865  0.07600673    -0.01200
H1357       H  0.94948913  0.56259345  0.03385106     0.00300
H1358       H  0.77288237  0.41486776  0.01743417     0.04000
H1359       H  0.78017946  0.40286609  0.07810374     0.05900
H1360       H  0.82067237  0.37932367  0.03998793     0.06800
C1361       C  0.47743338  0.46233959  0.11625289    -0.22800
C1362       C  0.50836717  0.49503110  0.13532779     0.09100
C1363       C  0.49053324  0.53249317  0.16071025     0.09600
C1364       C  0.44284175  0.53547612  0.16782117    -0.17700
C1365       C  0.41057097  0.50308437  0.14869187    -0.28200
C1366       C  0.42929464  0.46543000  0.12268348     0.17900
C1367       C  0.55963824  0.48727176  0.13254661     0.11900
C1368       C  0.52223700  0.56852738  0.18237110    -0.12500
H1369       H  0.43207591  0.56230305  0.19122067     0.12100
C1370       C  0.39992558  0.42707404  0.10224482    -0.23300
H1371       H  0.49137444  0.43346360  0.09687452     0.07800
C1372       C  0.58392018  0.45374335  0.15985179     0.04100
C1373       C  0.63262916  0.45061192  0.16023630    -0.20600
C1374       C  0.65826248  0.47998935  0.13384907    -0.12900
C1375       C  0.63379791  0.51325106  0.10581460     0.12800
C1376       C  0.58494082  0.51621601  0.10544472    -0.23300
C1377       C  0.55847959  0.42218430  0.18989750    -0.06400
H1378       H  0.65099715  0.42542966  0.18199823     0.14400
C1379       C  0.65870730  0.54763573  0.07829713    -0.16500
H1380       H  0.56633463  0.54219667  0.08485648     0.08700
H1381       H  0.42168992  0.39771609  0.09041718     0.06500
H1382       H  0.37923839  0.43931186  0.07142192     0.07700
H1383       H  0.37716209  0.41350486  0.12803861     0.06800
H1384       H  0.53969676  0.58669286  0.15511001     0.01700
H1385       H  0.54873901  0.55189766  0.20619188     0.02100
H1386       H  0.50308224  0.59495242  0.20230994     0.05600
H1387       H  0.58255020  0.39897767  0.21012680     0.04600
H1388       H  0.53464775  0.40022084  0.16822199    -0.01200
H1389       H  0.53828906  0.44295905  0.21447345     0.00300
H1390       H  0.67549288  0.52987297  0.04941950     0.04000
H1391       H  0.68511976  0.56571443  0.10078391     0.05900
H1392       H  0.63455134  0.57431236  0.06307882     0.06800
C1393       C  0.54533344  0.48142770  0.85441356    -0.22800
C1394       C  0.53143889  0.50112812  0.89573626     0.09100
C1395       C  0.56572675  0.51447765  0.92956595     0.09600
C1396       C  0.61304309  0.51031462  0.91987369    -0.17700
C1397       C  0.62725385  0.49390893  0.87657814    -0.28200
C1398       C  0.59176015  0.47957974  0.84328594     0.17900
C1399       C  0.48094812  0.51267684  0.89819710     0.11900
C1400       C  0.55252883  0.53418924  0.97536167    -0.12500
H1401       H  0.63829916  0.52184057  0.94604445     0.12100
C1402       C  0.59957831  0.46409166  0.79427925    -0.23300
H1403       H  0.51888966  0.47074425  0.82860499     0.07800
C1404       C  0.45845774  0.54036866  0.86396934     0.04100
C1405       C  0.41028860  0.54004377  0.85759843    -0.20600
C1406       C  0.38170856  0.51703402  0.88742954    -0.12900
C1407       C  0.40466997  0.49103732  0.92379984     0.12800
C1408       C  0.45371225  0.48961962  0.92860531    -0.23300
C1409       C  0.48437991  0.57003265  0.83226267    -0.06400
H1410       H  0.39560285  0.55719721  0.82725096     0.14400
C1411       C  0.37911561  0.46299455  0.95699514    -0.16500
H1412       H  0.47083415  0.46905743  0.95544953     0.08700
H1413       H  0.57916690  0.48696159  0.77004216     0.06500
H1414       H  0.58720949  0.42828346  0.78885977     0.07700
H1415       H  0.63563096  0.46493909  0.78415460     0.06800
H1416       H  0.53484046  0.50766566  0.99465275     0.01700
H1417       H  0.52893273  0.56456326  0.97019586     0.02100
H1418       H  0.58336988  0.54536440  0.99684007     0.05600
H1419       H  0.47070703  0.60609886  0.83397495     0.04600
H1420       H  0.47934856  0.55686311  0.79626220    -0.01200
H1421       H  0.52201763  0.57125544  0.84167188     0.00300
H1422       H  0.40303664  0.44072843  0.97846870     0.04000
H1423       H  0.35389265  0.44015245  0.93812745     0.05900
H1424       H  0.36207544  0.48612296  0.98182257     0.06800
C1425       C  0.18808769  0.52483184  0.00129635    -0.22800
C1426       C  0.16640893  0.48177513  0.00149448     0.09100
C1427       C  0.15512671  0.45952196  0.95903282     0.09600
C1428       C  0.17830687  0.47266479  0.92013944    -0.17700
C1429       C  0.20917096  0.50962661  0.92358186    -0.28200
C1430       C  0.20861763  0.53960474  0.96219199     0.17900
C1431       C  0.17016883  0.45693353  0.04584013     0.11900
C1432       C  0.11947612  0.42235361  0.95558027    -0.12500
H1433       H  0.17540603  0.45193103  0.88879371     0.12100
C1434       C  0.23198177  0.58568685  0.96405039    -0.23300
H1435       H  0.19378822  0.54470667  0.03298450     0.07800
C1436       C  0.20921650  0.42703217  0.05272622     0.04100
C1437       C  0.24155239  0.43671691  0.08904013    -0.20600
C1438       C  0.23446059  0.47403996  0.11931186    -0.12900
C1439       C  0.18915706  0.49431788  0.11979567     0.12800
C1440       C  0.15644736  0.48308484  0.08384058    -0.23300
C1441       C  0.21968650  0.38812598  0.01960846    -0.06400
H1442       H  0.27400657  0.41723960  0.09172334     0.14400
C1443       C  0.17554969  0.53083950  0.15416135    -0.16500
H1444       H  0.12429557  0.50296132  0.08017417     0.08700
H1445       H  0.26073097  0.58550679  0.99109046     0.06500
H1446       H  0.20638050  0.61317433  0.97256183     0.07700
H1447       H  0.24591583  0.59452999  0.93061718     0.06800
H1448       H  0.08647108  0.43626900  0.96839597     0.01700
H1449       H  0.13068029  0.39215982  0.97645206     0.02100
H1450       H  0.11222827  0.41075294  0.91940918     0.05600
H1451       H  0.25253578  0.36969341  0.03012519     0.04600
H1452       H  0.22341179  0.40113041  0.98442105    -0.01200
H1453       H  0.19177164  0.36244495  0.01926716     0.00300
H1454       H  0.14095537  0.54646124  0.14475343     0.04000
H1455       H  0.20074542  0.55912459  0.15543221     0.05900
H1456       H  0.17277944  0.51538562  0.18847784     0.06800
C1457       C  0.95507478  0.76003298  0.47412383    -0.22800
C1458       C  0.96729459  0.78768287  0.51270381     0.09100
C1459       C  0.93379954  0.80156782  0.54331829     0.09600
C1460       C  0.89070018  0.78058154  0.53932214    -0.17700
C1461       C  0.88052054  0.74817613  0.50382150    -0.28200
C1462       C  0.91151471  0.74069959  0.46878737     0.17900
C1463       C  0.01688042  0.79071954  0.52458393     0.11900
C1464       C  0.94355918  0.83851107  0.57925380    -0.12500
H1465       H  0.86551079  0.78858298  0.56458204     0.12100
C1466       C  0.89896954  0.71373065  0.42535599    -0.23300
H1467       H  0.98081133  0.75119104  0.44958681     0.07800
C1468       C  0.03748073  0.75809787  0.55562680     0.04100
C1469       C  0.08289898  0.74352248  0.54994205    -0.20600
C1470       C  0.10607852  0.75719996  0.51166844    -0.12900
C1471       C  0.08742599  0.79286232  0.48357677     0.12800
C1472       C  0.04344255  0.81088552  0.49180441    -0.23300
C1473       C  0.01019298  0.73309620  0.59007547    -0.06400
H1474       H  0.09852357  0.71722389  0.57235411     0.14400
C1475       C  0.11111627  0.80833676  0.44214606    -0.16500
H1476       H  0.02690538  0.83534925  0.46790549     0.08700
H1477       H  0.89101506  0.67746738  0.43243921     0.06500
H1478       H  0.92757443  0.71374223  0.40182296     0.07700
H1479       H  0.86900063  0.73025294  0.40682463     0.06800
H1480       H  0.95135302  0.87109223  0.56195033     0.01700
H1481       H  0.97370161  0.82880879  0.60244606     0.02100
H1482       H  0.91337077  0.84518099  0.60043416     0.05600
H1483       H  0.03158781  0.70620285  0.60858894     0.04600
H1484       H  0.98030760  0.71550770  0.57225247    -0.01200
H1485       H  0.99768354  0.75738323  0.61655607     0.00300
H1486       H  0.08955767  0.83421472  0.42239342     0.04000
H1487       H  0.11732621  0.77828111  0.41893628     0.05900
H1488       H  0.14442548  0.82457858  0.45297355     0.06800
C1489       C  0.20480851  0.42927940  0.47328005    -0.22800
C1490       C  0.17732768  0.45417467  0.50337061     0.09100
C1491       C  0.14683483  0.42951080  0.52988732     0.09600
C1492       C  0.14524520  0.38068675  0.52597361    -0.17700
C1493       C  0.17343925  0.35541349  0.49613213    -0.28200
C1494       C  0.20339977  0.38075070  0.46952632     0.17900
C1495       C  0.18114448  0.50591909  0.50551221     0.11900
C1496       C  0.11517698  0.45474433  0.56148938    -0.12500
H1497       H  0.12179910  0.36211915  0.54639488     0.12100
C1498       C  0.23262073  0.35734911  0.43528322    -0.23300
H1499       H  0.22775623  0.44814705  0.45252181     0.07800
C1500       C  0.21011716  0.52850095  0.53914611     0.04100
C1501       C  0.21366921  0.57713399  0.53897378    -0.20600
C1502       C  0.19069487  0.60467449  0.50450965    -0.12900
C1503       C  0.16530487  0.58063625  0.46803056     0.12800
C1504       C  0.15984891  0.53238672  0.47002731    -0.23300
C1505       C  0.23933488  0.50094977  0.57392605    -0.06400
H1506       H  0.23641524  0.59282570  0.56515639     0.14400
C1507       C  0.14375414  0.60356476  0.42543903    -0.16500
H1508       H  0.14003202  0.51495578  0.44238980     0.08700
H1509       H  0.26016371  0.33647102  0.45351201     0.06500
H1510       H  0.24936851  0.38263640  0.41369224     0.07700
H1511       H  0.21014972  0.33559909  0.41239878     0.06800
H1512       H  0.09242893  0.47933291  0.54137508     0.01700
H1513       H  0.13573219  0.47424238  0.58838389     0.02100
H1514       H  0.09286292  0.43058833  0.57898854     0.05600
H1515       H  0.26086270  0.52352131  0.59739872     0.04600
H1516       H  0.26295300  0.47713716  0.55569050    -0.01200
H1517       H  0.21705646  0.48040668  0.59525009     0.00300
H1518       H  0.15683087  0.58622377  0.39424840     0.04000
H1519       H  0.15120733  0.64054451  0.42267146     0.05900
H1520       H  0.10570172  0.59991272  0.42474159     0.06800
C1521       C  0.74044645  0.43411234  0.51782847    -0.22800
C1522       C  0.77670110  0.45704544  0.49884920     0.09100
C1523       C  0.81098362  0.43125824  0.47677950     0.09600
C1524       C  0.81014864  0.38283681  0.47736263    -0.17700
C1525       C  0.77522758  0.35903520  0.49881086    -0.28200
C1526       C  0.73773877  0.38582485  0.51585288     0.17900
C1527       C  0.77726165  0.50819532  0.50139738     0.11900
C1528       C  0.84770946  0.45486823  0.45146630    -0.12500
H1529       H  0.83638662  0.36406255  0.45941728     0.12100
C1530       C  0.69351209  0.36579507  0.53126184    -0.23300
H1531       H  0.71315092  0.45426495  0.53319584     0.07800
C1532       C  0.74526827  0.53543715  0.47498381     0.04100
C1533       C  0.74662408  0.58363888  0.47937393    -0.20600
C1534       C  0.78076570  0.60621430  0.50783478    -0.12900
C1535       C  0.81146429  0.57795130  0.53622659     0.12800
C1536       C  0.80955062  0.52964176  0.53190434    -0.23300
C1537       C  0.71024173  0.51372139  0.44120660    -0.06400
H1538       H  0.71978020  0.60296505  0.46068144     0.14400
C1539       C  0.84703072  0.59632814  0.57165002    -0.16500
H1540       H  0.83333594  0.50829905  0.55299621     0.08700
H1541       H  0.66343148  0.38295876  0.51262196     0.06500
H1542       H  0.69099314  0.37227453  0.56878754     0.07700
H1543       H  0.69004430  0.32848217  0.52386959     0.06800
H1544       H  0.86892895  0.47690180  0.47569037     0.01700
H1545       H  0.83101310  0.47669928  0.42390543     0.02100
H1546       H  0.87135456  0.42963633  0.43508445     0.05600
H1547       H  0.68898529  0.54009361  0.42181599     0.04600
H1548       H  0.68635823  0.49208721  0.45964903    -0.01200
H1549       H  0.72840193  0.49191229  0.41586004     0.00300
H1550       H  0.84376524  0.57867671  0.60487093     0.04000
H1551       H  0.84358666  0.63372434  0.57888945     0.05900
H1552       H  0.88231509  0.58875273  0.56001447     0.06800
C1553       C  0.03458379  0.13863781  0.49371124    -0.22800
C1554       C  0.99803366  0.16340938  0.47191146     0.09100
C1555       C  0.00721704  0.20205244  0.44518344     0.09600
C1556       C  0.05107423  0.22100183  0.44954217    -0.17700
C1557       C  0.08583377  0.20141262  0.47915379    -0.28200
C1558       C  0.07946403  0.15564502  0.49494235     0.17900
C1559       C  0.95285968  0.16217327  0.49161950     0.11900
C1560       C  0.96958107  0.22629011  0.41613101    -0.12500
H1561       H  0.05743719  0.25212130  0.43101667     0.12100
C1562       C  0.11795433  0.12371294  0.51328365    -0.23300
H1563       H  0.02764345  0.10767864  0.51228697     0.07800
C1564       C  0.91378760  0.14609411  0.46594444     0.04100
C1565       C  0.87107897  0.16823202  0.47173232    -0.20600
C1566       C  0.86819137  0.20642487  0.50190859    -0.12900
C1567       C  0.90574675  0.21630342  0.53353786     0.12800
C1568       C  0.94763286  0.19299261  0.52854391    -0.23300
C1569       C  0.91810365  0.10714626  0.43179272    -0.06400
H1570       H  0.84105268  0.15801392  0.45029276     0.14400
C1571       C  0.90403101  0.25221094  0.57150087    -0.16500
H1572       H  0.97793480  0.20375784  0.54947664     0.08700
H1573       H  0.11548207  0.08991685  0.49477281     0.06500
H1574       H  0.11441718  0.11777730  0.55055192     0.07700
H1575       H  0.15301109  0.13638130  0.50799475     0.06800
H1576       H  0.94206291  0.23947785  0.43814715     0.01700
H1577       H  0.95460445  0.20187871  0.38981949     0.02100
H1578       H  0.98298234  0.25614757  0.39788261     0.05600
H1579       H  0.88389499  0.09706299  0.41586188     0.04600
H1580       H  0.93354425  0.07696215  0.45012839    -0.01200
H1581       H  0.94078022  0.11694050  0.40423438     0.00300
H1582       H  0.91409049  0.23592246  0.60496539     0.04000
H1583       H  0.86939485  0.26828523  0.57442815     0.05900
H1584       H  0.92885368  0.27988484  0.56546609     0.06800
loop_ 
_geom_bond_atom_site_label_1 
_geom_bond_atom_site_label_2 
_geom_bond_distance 
_geom_bond_site_symmetry_2 
_ccdc_geom_bond_type 
Zr1           O2   2.431       .  S
Zr1           O3   2.505       .  S
Zr1           O4   2.487       .  S
Zr1           O7   2.449       .  S
Zr1           O9   2.375       .  S
Zr1          O10   2.394       .  S
Zr1          O11   2.423       .  S
Zr1          O12   2.404       .  S
O2           H58   0.990       .  S
O2           H66   0.990       .  S
O3           C23   1.297       .  A
O4           C25   1.297       .  A
O5          Zr15   2.468       .  S
O5           C24   1.294       .  A
O6          Zr14   2.497       .  S
O6           C25   1.295       .  A
O7           C24   1.286       .  A
O8          Zr16   2.384       .  S
O8           C23   1.272       .  A
O9          Zr14   2.420       .  S
O9          Zr16   2.396       .  S
O10         Zr15   2.401       .  S
O10         Zr16   2.380       .  S
O10          H45   0.964       .  S
O11         Zr14   2.396       .  S
O11         Zr31   2.384       .  S
O11          H48   0.962       .  S
O12         Zr15   2.375       .  S
O12         Zr31   2.369       .  S
Zr13         O38   2.445       .  S
Zr13         O32   2.502       .  S
Zr13         O40   2.519       .  S
Zr13         O28   2.482       .  S
Zr13         O19   2.397       .  S
Zr13         O20   2.425       .  S
Zr13         O21   2.397       .  S
Zr13         O22   2.393       .  S
Zr14         O33   2.438       .  S
Zr14         O26   2.434       .  S
Zr14         O27   2.475       .  S
Zr14         O20   2.405       .  S
Zr14         O21   2.403       .  S
Zr15         O17   2.437       .  S
Zr15         O39   2.438       .  S
Zr15         O41   2.470       .  S
Zr15         O19   2.381       .  S
Zr15         O22   2.415       .  S
Zr16         O42   2.434       .  S
Zr16         O43   2.437       .  S
Zr16         O18   2.437       .  S
Zr16         O19   2.388       .  S
Zr16         O20   2.359       .  S
O17          H54   0.990       .  S
O18          H49   0.990       .  S
O18          H63   0.990       .  S
O20          H46   0.950       .  S
O21         Zr31   2.382       .  S
O22         Zr31   2.401       .  S
O22          H47   0.966       .  S
C23         C591   1.482       .  S
C24          C98   1.471       .  S
C25         C194   1.523       .  S
O26          H62   0.990       .  S
O27          C29   1.294       .  A
O28          C29   1.294       .  A
C29         C477   1.492       .  S
O30         Zr31   2.440       .  S
O30          H59   0.990       .  S
Zr31         O34   2.438       .  S
Zr31         O35   2.436       .  S
Zr31         O36   2.385       .  S
O32          C37   1.295       .  A
O33          H50   0.990       .  S
O33          H65   0.990       .  S
O34          H51   0.990       .  S
O35          H55   0.990       .  S
O35          H64   0.989       .  S
O36          C37   1.273       .  A
C37         C146   1.484       .  S
O38          H57   0.989       .  S
O38          H61   0.989       .  S
O39          H53   0.990       .  S
O39          H60   0.989       .  S
O40          C44   1.305       .  A
O41          C44   1.289       .  A
O42          H52   0.990       .  S
O43          H56   0.991       .  S
C44         C705   1.526       .  S
C67          C68   1.524       .  S
C67          C73   1.528       .  S
C67          C71   1.557       .  S
C67        C1525   1.540       .  S
C68          H75   1.087       .  S
C68          C69   1.362       .  D
C69         C433   1.484       .  S
C69          C70   1.552       .  S
C70          C74   1.567       .  S
C70          C72   1.512       .  S
C70          H76   1.111       .  S
C71          H77   1.083       .  S
C71          C72   1.371       .  D
C72        C1566   1.464       .  S
C73          H78   1.086       .  S
C73          C74   1.367       .  D
C74         C386   1.498       .  S
C79          C80   1.507       .  S
C79          C85   1.498       .  S
C79          C83   1.567       .  S
C79        C1557   1.515       .  S
C80          H87   1.087       .  S
C80          C81   1.357       .  D
C81         C234   1.488       .  S
C81          C82   1.575       .  S
C82          C86   1.580       .  S
C82          C84   1.551       .  S
C82          H88   1.108       .  S
C83          H89   1.085       .  S
C83          C84   1.377       .  D
C84        C1493   1.520       .  S
C85          H90   1.088       .  S
C85          C86   1.353       .  D
C86         C773   1.498       .  S
C91          C92   1.539       .  S
C91          C97   1.517       .  S
C91          C95   1.545       .  S
C91        C1534   1.544       .  S
C92          H99   1.072       .  S
C92          C93   1.366       .  D
C93         C673   1.487       .  S
C93          C94   1.542       .  S
C94          C98   1.548       .  S
C94          C96   1.517       .  S
C94         H100   1.111       .  S
C95         H101   1.085       .  S
C95          C96   1.369       .  D
C96        C1461   1.460       .  S
C97         H102   1.085       .  S
C97          C98   1.362       .  D
C103        C104   1.548       .  S
C103        C109   1.527       .  S
C103        C107   1.536       .  S
C103       C1502   1.562       .  S
C104        H111   1.082       .  S
C104        C105   1.375       .  D
C105        C551   1.502       .  S
C105        C106   1.553       .  S
C106        C110   1.560       .  S
C106        C108   1.524       .  S
C106        H112   1.109       .  S
C107        H113   1.087       .  S
C107        C108   1.371       .  D
C108       C1470   1.466       .  S
C109        H114   1.087       .  S
C109        C110   1.371       .  D
C110        C313   1.506       .  S
C115        C116   1.533       .  S
C115        C121   1.533       .  S
C115        C119   1.542       .  S
C115       C1406   1.557       .  S
C116        H123   1.086       .  S
C116        C117   1.356       .  D
C117        C545   1.489       .  S
C117        C118   1.562       .  S
C118        C122   1.561       .  S
C118        C120   1.532       .  S
C118        H124   1.110       .  S
C119        H125   1.078       .  S
C119        C120   1.377       .  D
C120       C1429   1.476       .  S
C121        H126   1.087       .  S
C121        C122   1.367       .  D
C122        C247   1.503       .  S
C127        C128   1.528       .  S
C127        C133   1.526       .  S
C127        C131   1.557       .  S
C127       C1365   1.567       .  S
C128        H135   1.087       .  S
C128        C129   1.368       .  D
C129        C794   1.518       .  S
C129        C130   1.564       .  S
C130        C134   1.571       .  S
C130        C132   1.527       .  S
C130        H136   1.101       .  S
C131        H137   1.081       .  S
C131        C132   1.387       .  D
C132       C1438   1.494       .  S
C133        H138   1.081       .  S
C133        C134   1.367       .  D
C134        C301   1.525       .  S
C139        C140   1.521       .  S
C139        C145   1.536       .  S
C139        C143   1.554       .  S
C139       C1397   1.548       .  S
C140        H147   1.088       .  S
C140        C141   1.358       .  D
C141        C445   1.480       .  S
C141        C142   1.556       .  S
C142        C146   1.535       .  S
C142        C144   1.533       .  S
C142        H148   1.108       .  S
C143        H149   1.081       .  S
C143        C144   1.384       .  D
C144       C1333   1.487       .  S
C145        H150   1.088       .  S
C145        C146   1.365       .  D
C151        C152   1.503       .  S
C151        C157   1.524       .  S
C151        C155   1.557       .  S
C151       C1342   1.518       .  S
C152        H159   1.088       .  S
C152        C153   1.352       .  D
C153        C365   1.491       .  S
C153        C154   1.575       .  S
C154        C158   1.557       .  S
C154        C156   1.547       .  S
C154        H160   1.110       .  S
C155        H161   1.083       .  S
C155        C156   1.379       .  D
C156       C1374   1.505       .  S
C157        H162   1.086       .  S
C157        C158   1.353       .  D
C158        C660   1.480       .  S
C163        C164   1.498       .  S
C163        C169   1.521       .  S
C163        C167   1.565       .  S
C163       C1310   1.521       .  S
C164        H171   1.090       .  S
C164        C165   1.346       .  D
C165        C300   1.472       .  S
C165        C166   1.565       .  S
C166        C170   1.589       .  S
C166        C168   1.548       .  S
C166        H172   1.108       .  S
C167        H173   1.085       .  S
C167        C168   1.375       .  D
C168       C1269   1.528       .  S
C169        H174   1.084       .  S
C169        C170   1.367       .  D
C170        C661   1.492       .  S
C175        C176   1.504       .  S
C175        C181   1.521       .  S
C175        C179   1.563       .  S
C175       C1301   1.520       .  S
C176        H183   1.089       .  S
C176        C177   1.350       .  D
C177        C371   1.480       .  S
C177        C178   1.558       .  S
C178        C182   1.569       .  S
C178        C180   1.538       .  S
C178        H184   1.109       .  S
C179        H185   1.080       .  S
C179        C180   1.380       .  D
C180       C1246   1.513       .  S
C181        H186   1.084       .  S
C181        C182   1.358       .  D
C182        C779   1.482       .  S
C187        C188   1.547       .  S
C187        C193   1.533       .  S
C187        C191   1.548       .  S
C187       C1278   1.571       .  S
C188        H195   1.081       .  S
C188        C189   1.373       .  D
C189        C566   1.528       .  S
C189        C190   1.568       .  S
C190        C194   1.566       .  S
C190        C192   1.522       .  S
C190        H196   1.111       .  S
C191        H197   1.086       .  S
C191        C192   1.375       .  D
C192       C1205   1.468       .  S
C193        H198   1.087       .  S
C193        C194   1.372       .  D
C199        C200   1.535       .  S
C199        C205   1.541       .  S
C199        C203   1.546       .  S
C199       C1237   1.565       .  S
C200        H207   1.086       .  S
C200        C201   1.371       .  D
C201        C432   1.525       .  S
C201        C202   1.566       .  S
C202        C206   1.563       .  S
C202        C204   1.518       .  S
C202        H208   1.111       .  S
C203        H209   1.085       .  S
C203        C204   1.371       .  D
C204       C1214   1.469       .  S
C205        H210   1.079       .  S
C205        C206   1.372       .  D
C206        C235   1.513       .  S
Zr211       O212   2.443       .  S
Zr211       O213   2.513       .  S
Zr211       O214   2.486       .  S
Zr211       O217   2.464       .  S
Zr211       O219   2.378       .  S
Zr211       O220   2.396       .  S
Zr211       O221   2.426       .  S
Zr211       O222   2.418       .  S
O212        H268   0.989       .  S
O212        H276   0.990       .  S
O213        C233   1.297       .  A
O214        C235   1.297       .  A
O215       Zr225   2.446       .  S
O215        C234   1.291       .  A
O216       Zr224   2.466       .  S
O216        C235   1.288       .  A
O217        C234   1.287       .  A
O218       Zr226   2.396       .  S
O218        C233   1.273       .  A
O219       Zr224   2.405       .  S
O219       Zr226   2.391       .  S
O220       Zr225   2.400       .  S
O220       Zr226   2.379       .  S
O220        H255   0.965       .  S
O221       Zr224   2.406       .  S
O221       Zr241   2.399       .  S
O221        H258   0.963       .  S
O222       Zr225   2.382       .  S
O222       Zr241   2.387       .  S
Zr223       O248   2.435       .  S
Zr223       O242   2.505       .  S
Zr223       O250   2.486       .  S
Zr223       O238   2.478       .  S
Zr223       O229   2.404       .  S
Zr223       O230   2.427       .  S
Zr223       O231   2.385       .  S
Zr223       O232   2.392       .  S
Zr224       O243   2.438       .  S
Zr224       O236   2.435       .  S
Zr224       O237   2.458       .  S
Zr224       O230   2.406       .  S
Zr224       O231   2.403       .  S
Zr225       O227   2.436       .  S
Zr225       O249   2.441       .  S
Zr225       O251   2.446       .  S
Zr225       O229   2.396       .  S
Zr225       O232   2.411       .  S
Zr226       O252   2.435       .  S
Zr226       O253   2.438       .  S
Zr226       O228   2.444       .  S
Zr226       O229   2.393       .  S
Zr226       O230   2.371       .  S
O227        H264   0.990       .  S
O228        H259   0.990       .  S
O228        H273   0.990       .  S
O230        H256   0.961       .  S
O231       Zr241   2.384       .  S
O232       Zr241   2.381       .  S
O232        H257   0.966       .  S
C233        C603   1.490       .  S
O236        H272   0.991       .  S
O237        C239   1.294       .  A
O238        C239   1.290       .  A
C239        C518   1.491       .  S
O240       Zr241   2.441       .  S
O240        H269   0.990       .  S
Zr241       O244   2.435       .  S
Zr241       O245   2.440       .  S
Zr241       O246   2.425       .  S
O242        C247   1.295       .  A
O243        H260   0.990       .  S
O243        H275   0.990       .  S
O244        H261   0.990       .  S
O245        H265   0.990       .  S
O245        H274   0.990       .  S
O246        C247   1.281       .  A
O248        H267   0.989       .  S
O248        H271   0.990       .  S
O249        H263   0.990       .  S
O249        H270   0.990       .  S
O250        C254   1.298       .  A
O251        C254   1.284       .  A
O252        H262   0.990       .  S
O253        H266   0.990       .  S
C254        C729   1.510       .  S
Zr277       O278   2.442       .  S
Zr277       O279   2.526       .  S
Zr277       O280   2.467       .  S
Zr277       O283   2.433       .  S
Zr277       O285   2.381       .  S
Zr277       O286   2.385       .  S
Zr277       O287   2.423       .  S
Zr277       O288   2.411       .  S
O278        H334   0.990       .  S
O278        H342   0.990       .  S
O279        C299   1.299       .  A
O280        C301   1.294       .  A
O281       Zr291   2.470       .  S
O281        C300   1.297       .  A
O282       Zr290   2.505       .  S
O282        C301   1.295       .  A
O283        C300   1.281       .  A
O284       Zr292   2.390       .  S
O284        C299   1.275       .  A
O285       Zr290   2.419       .  S
O285       Zr292   2.390       .  S
O286       Zr291   2.388       .  S
O286       Zr292   2.381       .  S
O286        H321   0.964       .  S
O287       Zr290   2.408       .  S
O287       Zr307   2.379       .  S
O287        H324   0.961       .  S
O288       Zr291   2.373       .  S
O288       Zr307   2.377       .  S
Zr289       O314   2.431       .  S
Zr289       O308   2.515       .  S
Zr289       O316   2.485       .  S
Zr289       O304   2.436       .  S
Zr289       O295   2.381       .  S
Zr289       O296   2.436       .  S
Zr289       O297   2.386       .  S
Zr289       O298   2.383       .  S
Zr290       O309   2.437       .  S
Zr290       O302   2.437       .  S
Zr290       O303   2.487       .  S
Zr290       O296   2.410       .  S
Zr290       O297   2.405       .  S
Zr291       O293   2.437       .  S
Zr291       O315   2.436       .  S
Zr291       O317   2.459       .  S
Zr291       O295   2.380       .  S
Zr291       O298   2.411       .  S
Zr292       O318   2.435       .  S
Zr292       O319   2.433       .  S
Zr292       O294   2.432       .  S
Zr292       O295   2.378       .  S
Zr292       O296   2.380       .  S
O293        H330   0.990       .  S
O294        H325   0.990       .  S
O294        H339   0.990       .  S
O296        H322   0.963       .  S
O297       Zr307   2.382       .  S
O298       Zr307   2.386       .  S
O298        H323   0.965       .  S
C299        C501   1.497       .  S
O302        H338   0.990       .  S
O303        C305   1.301       .  A
O304        C305   1.281       .  A
C305        C722   1.486       .  S
O306       Zr307   2.436       .  S
O306        H335   0.990       .  S
Zr307       O310   2.439       .  S
Zr307       O311   2.429       .  S
Zr307       O312   2.401       .  S
O308        C313   1.297       .  A
O309        H326   0.990       .  S
O309        H341   0.990       .  S
O310        H327   0.990       .  S
O311        H331   0.989       .  S
O311        H340   0.990       .  S
O312        C313   1.278       .  A
O314        H333   0.989       .  S
O314        H337   0.989       .  S
O315        H329   0.989       .  S
O315        H336   0.990       .  S
O316        C320   1.297       .  A
O317        C320   1.285       .  A
O318        H328   0.990       .  S
O319        H332   0.990       .  S
C320        C627   1.511       .  S
Zr343       O344   2.440       .  S
Zr343       O345   2.488       .  S
Zr343       O346   2.497       .  S
Zr343       O349   2.478       .  S
Zr343       O351   2.372       .  S
Zr343       O352   2.393       .  S
Zr343       O353   2.415       .  S
Zr343       O354   2.423       .  S
O344        H400   0.990       .  S
O344        H408   0.990       .  S
O345        C365   1.298       .  A
O346        C367   1.296       .  A
O347       Zr357   2.428       .  S
O347        C366   1.284       .  A
O348       Zr356   2.450       .  S
O348        C367   1.288       .  A
O349        C366   1.293       .  A
O350       Zr358   2.397       .  S
O350        C365   1.271       .  A
O351       Zr356   2.374       .  S
O351       Zr358   2.395       .  S
O352       Zr357   2.404       .  S
O352       Zr358   2.389       .  S
O352        H387   0.966       .  S
O353       Zr356   2.376       .  S
O353       Zr373   2.362       .  S
O353        H390   0.957       .  S
O354       Zr357   2.390       .  S
O354       Zr373   2.401       .  S
Zr355       O380   2.434       .  S
Zr355       O374   2.491       .  S
Zr355       O382   2.495       .  S
Zr355       O370   2.524       .  S
Zr355       O361   2.402       .  S
Zr355       O362   2.409       .  S
Zr355       O363   2.380       .  S
Zr355       O364   2.397       .  S
Zr356       O375   2.435       .  S
Zr356       O368   2.434       .  S
Zr356       O369   2.385       .  S
Zr356       O362   2.406       .  S
Zr356       O363   2.402       .  S
Zr357       O359   2.426       .  S
Zr357       O381   2.434       .  S
Zr357       O383   2.440       .  S
Zr357       O361   2.381       .  S
Zr357       O364   2.388       .  S
Zr358       O384   2.438       .  S
Zr358       O385   2.434       .  S
Zr358       O360   2.437       .  S
Zr358       O361   2.373       .  S
Zr358       O362   2.382       .  S
O359        H396   0.989       .  S
O360        H391   0.990       .  S
O360        H405   0.989       .  S
O362        H388   0.963       .  S
O363       Zr373   2.398       .  S
O364       Zr373   2.371       .  S
O364        H389   0.966       .  S
C366        C746   1.496       .  S
C367        C489   1.499       .  S
O368        H404   0.990       .  S
O369        C371   1.277       .  A
O370        C371   1.302       .  A
O372       Zr373   2.443       .  S
O372        H401   0.991       .  S
Zr373       O376   2.439       .  S
Zr373       O377   2.439       .  S
Zr373       O378   2.411       .  S
O374        C379   1.301       .  A
O375        H392   0.990       .  S
O375        H407   0.990       .  S
O376        H393   0.990       .  S
O377        H397   0.988       .  S
O377        H406   0.989       .  S
O378        C379   1.274       .  A
C379        C620   1.510       .  S
O380        H399   0.989       .  S
O380        H403   0.990       .  S
O381        H395   0.990       .  S
O381        H402   0.989       .  S
O382        C386   1.296       .  A
O383        C386   1.286       .  A
O384        H394   0.990       .  S
O385        H398   0.991       .  S
Zr409       O410   2.430       .  S
Zr409       O411   2.494       .  S
Zr409       O412   2.431       .  S
Zr409       O415   2.474       .  S
Zr409       O417   2.384       .  S
Zr409       O418   2.379       .  S
Zr409       O419   2.429       .  S
Zr409       O420   2.403       .  S
O410        H466   0.988       .  S
O410        H474   0.989       .  S
O411        C431   1.291       .  A
O412        C433   1.279       .  A
O413       Zr423   2.501       .  S
O413        C432   1.295       .  A
O414       Zr422   2.502       .  S
O414        C433   1.300       .  A
O415        C432   1.295       .  A
O416       Zr424   2.390       .  S
O416        C431   1.272       .  A
O417       Zr422   2.413       .  S
O417       Zr424   2.386       .  S
O418       Zr423   2.418       .  S
O418       Zr424   2.398       .  S
O418        H453   0.966       .  S
O419       Zr422   2.402       .  S
O419       Zr439   2.366       .  S
O419        H456   0.959       .  S
O420       Zr423   2.379       .  S
O420       Zr439   2.399       .  S
Zr421       O446   2.435       .  S
Zr421       O440   2.484       .  S
Zr421       O448   2.433       .  S
Zr421       O436   2.470       .  S
Zr421       O427   2.388       .  S
Zr421       O428   2.421       .  S
Zr421       O429   2.374       .  S
Zr421       O430   2.398       .  S
Zr422       O441   2.437       .  S
Zr422       O434   2.435       .  S
Zr422       O435   2.496       .  S
Zr422       O428   2.413       .  S
Zr422       O429   2.417       .  S
Zr423       O425   2.438       .  S
Zr423       O447   2.435       .  S
Zr423       O449   2.491       .  S
Zr423       O427   2.363       .  S
Zr423       O430   2.410       .  S
Zr424       O450   2.436       .  S
Zr424       O451   2.436       .  S
Zr424       O426   2.437       .  S
Zr424       O427   2.353       .  S
Zr424       O428   2.397       .  S
O425        H462   0.990       .  S
O426        H457   0.990       .  S
O426        H471   0.990       .  S
O428        H454   0.963       .  S
O429       Zr439   2.388       .  S
O430       Zr439   2.378       .  S
O430        H455   0.966       .  S
C431        C596   1.482       .  S
O434        H470   0.990       .  S
O435        C437   1.294       .  A
O436        C437   1.296       .  A
C437        C734   1.522       .  S
O438       Zr439   2.435       .  S
O438        H467   0.990       .  S
Zr439       O442   2.437       .  S
Zr439       O443   2.436       .  S
Zr439       O444   2.404       .  S
O440        C445   1.290       .  A
O441        H458   0.990       .  S
O441        H473   0.990       .  S
O442        H459   0.990       .  S
O443        H463   0.990       .  S
O443        H472   0.990       .  S
O444        C445   1.276       .  A
O446        H465   0.990       .  S
O446        H469   0.989       .  S
O447        H461   0.990       .  S
O447        H468   0.990       .  S
O448        C452   1.281       .  A
O449        C452   1.299       .  A
O450        H460   0.990       .  S
O451        H464   0.990       .  S
C452        C494   1.477       .  S
C475        C476   1.535   1_554  S
C475        C481   1.516       .  S
C475        C479   1.544   1_554  S
C475       C1173   1.552       .  S
C476        H483   1.077       .  S
C476        C477   1.372       .  D
C477        C478   1.559   1_556  S
C478        C482   1.556       .  S
C478        C480   1.520       .  S
C478        H484   1.111       .  S
C479        H485   1.085       .  S
C479        C480   1.370   1_556  D
C480       C1150   1.465       .  S
C481        H486   1.082       .  S
C481        C482   1.359       .  D
C482        C659   1.486       .  S
C487        C488   1.539       .  S
C487        C493   1.523   1_554  S
C487        C491   1.555       .  S
C487       C1182   1.549       .  S
C488        H495   1.082       .  S
C488        C489   1.376       .  D
C489        C490   1.554       .  S
C490        C494   1.542   1_554  S
C490        C492   1.517       .  S
C490        H496   1.111       .  S
C491        H497   1.083       .  S
C491        C492   1.369       .  D
C492       C1109   1.468       .  S
C493        H498   1.087       .  S
C493        C494   1.360       .  D
C499        C500   1.532       .  S
C499        C505   1.547   1_554  S
C499        C503   1.545       .  S
C499       C1077   1.567       .  S
C500        H507   1.087       .  S
C500        C501   1.373       .  D
C501        C502   1.546       .  S
C502        C506   1.541   1_554  S
C502        C504   1.529       .  S
C502        H508   1.110       .  S
C503        H509   1.082       .  S
C503        C504   1.376       .  D
C504       C1141   1.480       .  S
C505        H510   1.078       .  S
C505        C506   1.365       .  D
C506        C546   1.487       .  S
C511        C512   1.511       .  S
C511        C517   1.524   1_554  S
C511        C515   1.553       .  S
C511       C1118   1.530       .  S
C512        H519   1.085       .  S
C512        C513   1.361       .  D
C513        C787   1.501       .  S
C513        C514   1.572       .  S
C514        C518   1.575   1_554  S
C514        C516   1.548       .  S
C514        H520   1.110   1_554  S
C515        H521   1.084       .  S
C515        C516   1.370       .  D
C516       C1086   1.512       .  S
C517        H522   1.081       .  S
C517        C518   1.358       .  D
Zr523       O524   2.443       .  S
Zr523       O525   2.497       .  S
Zr523       O526   2.476       .  S
Zr523       O529   2.464       .  S
Zr523       O531   2.382       .  S
Zr523       O532   2.404       .  S
Zr523       O533   2.427       .  S
Zr523       O534   2.404       .  S
O524        H580   0.990       .  S
O524        H588   0.991       .  S
O525        C545   1.294       .  A
O526        C547   1.294       .  A
O527       Zr537   2.473       .  S
O527        C546   1.295       .  A
O528       Zr536   2.528       .  S
O528        C547   1.302       .  A
O529        C546   1.288       .  A
O530       Zr538   2.413       .  S
O530        C545   1.272       .  A
O531       Zr536   2.412       .  S
O531       Zr538   2.396       .  S
O532       Zr537   2.412       .  S
O532       Zr538   2.377       .  S
O532        H567   0.966       .  S
O533       Zr536   2.406       .  S
O533       Zr553   2.395       .  S
O533        H570   0.962       .  S
O534       Zr537   2.381       .  S
O534       Zr553   2.368       .  S
Zr535       O560   2.442       .  S
Zr535       O554   2.524       .  S
Zr535       O562   2.483       .  S
Zr535       O550   2.478       .  S
Zr535       O541   2.420       .  S
Zr535       O542   2.430       .  S
Zr535       O543   2.390       .  S
Zr535       O544   2.384       .  S
Zr536       O555   2.437       .  S
Zr536       O548   2.437       .  S
Zr536       O549   2.504       .  S
Zr536       O542   2.412       .  S
Zr536       O543   2.422       .  S
Zr537       O539   2.433       .  S
Zr537       O561   2.440       .  S
Zr537       O563   2.488       .  S
Zr537       O541   2.389       .  S
Zr537       O544   2.414       .  S
Zr538       O564   2.436       .  S
Zr538       O565   2.436       .  S
Zr538       O540   2.441       .  S
Zr538       O541   2.405       .  S
Zr538       O542   2.362       .  S
O539        H576   0.990       .  S
O540        H571   0.990       .  S
O540        H585   0.990       .  S
O542        H568   0.959       .  S
O543       Zr553   2.392       .  S
O544       Zr553   2.388       .  S
O544        H569   0.966       .  S
C547        C710   1.537       .  S
O548        H584   0.990       .  S
O549        C551   1.302       .  A
O550        C551   1.291       .  A
O552       Zr553   2.439       .  S
O552        H581   0.990       .  S
Zr553       O556   2.436       .  S
Zr553       O557   2.437       .  S
Zr553       O558   2.405       .  S
O554        C559   1.300       .  A
O555        H572   0.990       .  S
O555        H587   0.990       .  S
O556        H573   0.990       .  S
O557        H577   0.990       .  S
O557        H586   0.990       .  S
O558        C559   1.273       .  A
C559        C608   1.500       .  S
O560        H579   0.991       .  S
O560        H583   0.990       .  S
O561        H575   0.990       .  S
O561        H582   0.990       .  S
O562        C566   1.297       .  A
O563        C566   1.292       .  A
O564        H574   0.990       .  S
O565        H578   0.990       .  S
C589        C590   1.551       .  S
C589        C595   1.526   1_565  S
C589        C593   1.540       .  S
C589       C1045   1.553       .  S
C590        H597   1.081       .  S
C590        C591   1.366       .  D
C591        C592   1.532       .  S
C592        C596   1.556   1_565  S
C592        C594   1.527       .  S
C592        H598   1.108       .  S
C593        H599   1.085       .  S
C593        C594   1.379       .  D
C594       C1013   1.479       .  S
C595        H600   1.087       .  S
C595        C596   1.359       .  D
C601        C602   1.526       .  S
C601        C607   1.526   1_545  S
C601        C605   1.550       .  S
C601       C1054   1.550       .  S
C602        H609   1.087       .  S
C602        C603   1.360       .  D
C603        C604   1.553       .  S
C604        C608   1.568   1_545  S
C604        C606   1.532       .  S
C604        H610   1.110       .  S
C605        H611   1.083       .  S
C605        C606   1.383       .  D
C606        C981   1.478       .  S
C607        H612   1.087       .  S
C607        C608   1.360       .  D
C613        C614   1.515       .  S
C613        C619   1.507   1_565  S
C613        C617   1.574   1_565  S
C613       C1022   1.517   1_565  S
C614        H621   1.088       .  S
C614        C615   1.348       .  D
C615        C665   1.486       .  S
C615        C616   1.562       .  S
C616        C620   1.578   1_565  S
C616        C618   1.545       .  S
C616        H622   1.089       .  S
C617        H623   1.082       .  S
C617        C618   1.397   1_545  D
C618        C949   1.532       .  S
C619        H624   1.089       .  S
C619        C620   1.347       .  D
C625        C626   1.538   1_545  S
C625        C631   1.534       .  S
C625        C629   1.541       .  S
C625        C958   1.558       .  S
C626        H633   1.079       .  S
C626        C627   1.363       .  D
C627        C628   1.559   1_565  S
C628        C632   1.571       .  S
C628        C630   1.519       .  S
C628        H634   1.110       .  S
C629        H635   1.086       .  S
C629        C630   1.371       .  D
C630        C990   1.470       .  S
C631        H636   1.086       .  S
C631        C632   1.377       .  D
C632        C775   1.522       .  S
Zr637       O638   2.439       .  S
Zr637       O639   2.493       .  S
Zr637       O640   2.532       .  S
Zr637       O643   2.485       .  S
Zr637       O645   2.397       .  S
Zr637       O646   2.402       .  S
Zr637       O647   2.412       .  S
Zr637       O648   2.417       .  S
O638        H694   0.990       .  S
O638        H702   0.990       .  S
O639        C659   1.292       .  A
O640        C661   1.301       .  A
O641       Zr651   2.420       .  S
O641        C660   1.282       .  A
O642       Zr650   2.383       .  S
O642        C661   1.278       .  A
O643        C660   1.295       .  A
O644       Zr652   2.415       .  S
O644        C659   1.274       .  A
O645       Zr650   2.401       .  S
O645       Zr652   2.392       .  S
O646       Zr651   2.394       .  S
O646       Zr652   2.388       .  S
O646        H681   0.965       .  S
O647       Zr650   2.401       .  S
O647       Zr667   2.366       .  S
O647        H684   0.958       .  S
O648       Zr651   2.390       .  S
O648       Zr667   2.374       .  S
Zr649       O674   2.439       .  S
Zr649       O668   2.488       .  S
Zr649       O676   2.527       .  S
Zr649       O664   2.525       .  S
Zr649       O655   2.407       .  S
Zr649       O656   2.417       .  S
Zr649       O657   2.391       .  S
Zr649       O658   2.420       .  S
Zr650       O669   2.439       .  S
Zr650       O662   2.436       .  S
Zr650       O663   2.398       .  S
Zr650       O656   2.403       .  S
Zr650       O657   2.379       .  S
Zr651       O653   2.438       .  S
Zr651       O675   2.436       .  S
Zr651       O677   2.420       .  S
Zr651       O655   2.381       .  S
Zr651       O658   2.397       .  S
Zr652       O678   2.438       .  S
Zr652       O679   2.443       .  S
Zr652       O654   2.452       .  S
Zr652       O655   2.369       .  S
Zr652       O656   2.401       .  S
O653        H690   0.990       .  S
O654        H685   0.988       .  S
O654        H699   0.988       .  S
O656        H682   0.964       .  S
O657       Zr667   2.398       .  S
O658       Zr667   2.384       .  S
O658        H683   0.964       .  S
O662        H698   0.990       .  S
O663        C665   1.276       .  A
O664        C665   1.302       .  A
O666       Zr667   2.443       .  S
O666        H695   0.990       .  S
Zr667       O670   2.444       .  S
Zr667       O671   2.447       .  S
Zr667       O672   2.405       .  S
O668        C673   1.287       .  A
O669        H686   0.990       .  S
O669        H701   0.990       .  S
O670        H687   0.990       .  S
O671        H691   0.989       .  S
O671        H700   0.988       .  S
O672        C673   1.270       .  A
O674        H693   0.990       .  S
O674        H697   0.990       .  S
O675        H689   0.990       .  S
O675        H696   0.989       .  S
O676        C680   1.303       .  A
O677        C680   1.285       .  A
O678        H688   0.991       .  S
O679        H692   0.991       .  S
C680        C717   1.502       .  S
C703        C704   1.533   1_455  S
C703        C709   1.541       .  S
C703        C707   1.556       .  S
C703        C926   1.566       .  S
C704        H711   1.086       .  S
C704        C705   1.364       .  D
C705        C706   1.576   1_655  S
C706        C710   1.559       .  S
C706        C708   1.523       .  S
C706        H712   1.109       .  S
C707        H713   1.084       .  S
C707        C708   1.380       .  D
C708        C894   1.476       .  S
C709        H714   1.086       .  S
C709        C710   1.379       .  D
C715        C716   1.513   1_455  S
C715        C721   1.500       .  S
C715        C719   1.572       .  S
C715        C862   1.519       .  S
C716        H723   1.088       .  S
C716        C717   1.361       .  D
C717        C718   1.582   1_655  S
C718        C722   1.581       .  S
C718        C720   1.542       .  S
C718        H724   1.109       .  S
C719        H725   1.082       .  S
C719        C720   1.377       .  D
C720        C917   1.525       .  S
C721        H726   1.090       .  S
C721        C722   1.353       .  D
C727        C728   1.534       .  S
C727        C733   1.530   1_455  S
C727        C731   1.543       .  S
C727        C821   1.552       .  S
C728        H735   1.078       .  S
C728        C729   1.367       .  D
C729        C730   1.571       .  S
C730        C734   1.567   1_455  S
C730        C732   1.517       .  S
C730        H736   1.111       .  S
C731        H737   1.086       .  S
C731        C732   1.368       .  D
C732        C885   1.463       .  S
C733        H738   1.086       .  S
C733        C734   1.369       .  D
C739        C740   1.520   1_655  S
C739        C745   1.506       .  S
C739        C743   1.562       .  S
C739        C853   1.518       .  S
C740        H747   1.088       .  S
C740        C741   1.349       .  D
C741        C774   1.489       .  S
C741        C742   1.569       .  S
C742        C746   1.576   1_455  S
C742        C744   1.538   1_455  S
C742        H748   1.106       .  S
C743        H749   1.083       .  S
C743        C744   1.383       .  D
C744        C830   1.511       .  S
C745        H750   1.090       .  S
C745        C746   1.355       .  D
Zr751       O752   2.436       .  S
Zr751       O753   2.471       .  S
Zr751       O754   2.455       .  S
Zr751       O757   2.435       .  S
Zr751       O759   2.371       .  S
Zr751       O760   2.387       .  S
Zr751       O761   2.412       .  S
Zr751       O762   2.406       .  S
O752        H808   0.988       .  S
O752        H816   0.990       .  S
O753        C773   1.296       .  A
O754        C775   1.288       .  A
O755       Zr765   2.476       .  S
O755        C774   1.296       .  A
O756       Zr764   2.495       .  S
O756        C775   1.293       .  A
O757        C774   1.280       .  A
O758       Zr766   2.402       .  S
O758        C773   1.272       .  A
O759       Zr764   2.398       .  S
O759       Zr766   2.400       .  S
O760       Zr765   2.391       .  S
O760       Zr766   2.397       .  S
O760        H795   0.962       .  S
O761       Zr764   2.394       .  S
O761       Zr781   2.415       .  S
O761        H798   0.966       .  S
O762       Zr765   2.383       .  S
O762       Zr781   2.388       .  S
Zr763       O788   2.441       .  S
Zr763       O782   2.448       .  S
Zr763       O790   2.470       .  S
Zr763       O778   2.474       .  S
Zr763       O769   2.399       .  S
Zr763       O770   2.417       .  S
Zr763       O771   2.394       .  S
Zr763       O772   2.384       .  S
Zr764       O783   2.436       .  S
Zr764       O776   2.432       .  S
Zr764       O777   2.441       .  S
Zr764       O770   2.418       .  S
Zr764       O771   2.410       .  S
Zr765       O767   2.437       .  S
Zr765       O789   2.440       .  S
Zr765       O791   2.461       .  S
Zr765       O769   2.408       .  S
Zr765       O772   2.403       .  S
Zr766       O792   2.434       .  S
Zr766       O793   2.442       .  S
Zr766       O768   2.434       .  S
Zr766       O769   2.400       .  S
Zr766       O770   2.361       .  S
O767        H804   0.990       .  S
O768        H799   0.990       .  S
O768        H813   0.990       .  S
O770        H796   0.962       .  S
O771       Zr781   2.387       .  S
O772       Zr781   2.386       .  S
O772        H797   0.966       .  S
O776        H812   0.989       .  S
O777        C779   1.289       .  A
O778        C779   1.289       .  A
O780       Zr781   2.435       .  S
O780        H809   0.990       .  S
Zr781       O784   2.427       .  S
Zr781       O785   2.438       .  S
Zr781       O786   2.436       .  S
O782        C787   1.290       .  A
O783        H800   0.990       .  S
O783        H815   0.990       .  S
O784        H801   0.990       .  S
O785        H805   0.990       .  S
O785        H814   0.990       .  S
O786        C787   1.278       .  A
O788        H807   0.990       .  S
O788        H811   0.988       .  S
O789        H803   0.990       .  S
O789        H810   0.990       .  S
O790        C794   1.295       .  A
O791        C794   1.288       .  A
O792        H802   0.990       .  S
O793        H806   0.990       .  S
C817        C818   1.397   1_656  A
C817        C822   1.408       .  A
C817        H827   1.085   1_556  S
C818        C819   1.406       .  A
C818        C823   1.484   1_455  S
C819        C824   1.508       .  S
C819        C820   1.403   1_554  A
C820        C821   1.415       .  A
C820        H825   1.073       .  S
C821        C822   1.431   1_455  A
C822        C826   1.509       .  S
C823        C828   1.406   1_655  A
C823        C832   1.394       .  A
C824        H840   1.110       .  S
C824        H841   1.110       .  S
C824        H842   1.111       .  S
C826        H837   1.099       .  S
C826        H838   1.110       .  S
C826        H839   1.095       .  S
C828        C833   1.506       .  S
C828        C829   1.408       .  A
C829        C830   1.415   1_455  A
C829        H834   1.082       .  S
C830        C831   1.432       .  A
C831        C835   1.507       .  S
C831        C832   1.402       .  A
C832        H836   1.086       .  S
C833        H843   1.111       .  S
C833        H844   1.111   1_455  S
C833        H845   1.110       .  S
C835        H846   1.111       .  S
C835        H847   1.090       .  S
C835        H848   1.110       .  S
C849        C850   1.403       .  A
C849        C854   1.396       .  A
C849        H859   1.085       .  S
C850        C851   1.401   1_655  A
C850        C855   1.458   1_655  S
C851        C856   1.504       .  S
C851        C852   1.393       .  A
C852        C853   1.412   1_455  A
C852        H857   1.084       .  S
C853        C854   1.414       .  A
C854        C858   1.506       .  S
C855        C860   1.414       .  A
C855        C864   1.392       .  A
C856        H872   1.109       .  S
C856        H873   1.107       .  S
C856        H874   1.111       .  S
C858        H869   1.108       .  S
C858        H870   1.111       .  S
C858        H871   1.111       .  S
C860        C865   1.510       .  S
C860        C861   1.391       .  A
C861        C862   1.401       .  A
C861        H866   1.081       .  S
C862        C863   1.424       .  A
C863        C867   1.504       .  S
C863        C864   1.397       .  A
C864        H868   1.084   1_455  S
C865        H875   1.111       .  S
C865        H876   1.109       .  S
C865        H877   1.110       .  S
C867        H878   1.111       .  S
C867        H879   1.106   1_455  S
C867        H880   1.106       .  S
C881        C882   1.405   1_655  A
C881        C886   1.391       .  A
C881        H891   1.084       .  S
C882        C883   1.410       .  A
C882        C887   1.471       .  S
C883        C888   1.508       .  S
C883        C884   1.401       .  A
C884        C885   1.403       .  A
C884        H889   1.083       .  S
C885        C886   1.406   1_455  A
C886        C890   1.508       .  S
C887        C892   1.407       .  A
C887        C896   1.406       .  A
C888        H904   1.108       .  S
C888        H905   1.110       .  S
C888        H906   1.110       .  S
C890        H901   1.110       .  S
C890        H902   1.109       .  S
C890        H903   1.108       .  S
C892        C897   1.508   1_455  S
C892        C893   1.396       .  A
C893        C894   1.408       .  A
C893        H898   1.082   1_455  S
C894        C895   1.412       .  A
C895        C899   1.509       .  S
C895        C896   1.394       .  A
C896        H900   1.084       .  S
C897        H907   1.110       .  S
C897        H908   1.108       .  S
C897        H909   1.110       .  S
C899        H910   1.110       .  S
C899        H911   1.107       .  S
C899        H912   1.111       .  S
C913        C914   1.404       .  A
C913        C918   1.414   1_455  A
C913        H923   1.079   1_455  S
C914        C915   1.418       .  A
C914        C919   1.519       .  S
C915        C920   1.507       .  S
C915        C916   1.417       .  A
C916        C917   1.412       .  A
C916        H921   1.082       .  S
C917        C918   1.426   1_455  A
C918        C922   1.506       .  S
C919        C924   1.420       .  A
C919        C928   1.404   1_455  A
C920        H936   1.107       .  S
C920        H937   1.109       .  S
C920        H938   1.107       .  S
C922        H933   1.110       .  S
C922        H934   1.109       .  S
C922        H935   1.103       .  S
C924        C929   1.509       .  S
C924        C925   1.419   1_554  A
C925        C926   1.416       .  A
C925        H930   1.081       .  S
C926        C927   1.429   1_455  A
C927        C931   1.509       .  S
C927        C928   1.412   1_556  A
C928        H932   1.082       .  S
C929        H939   1.111       .  S
C929        H940   1.108       .  S
C929        H941   1.111       .  S
C931        H942   1.110       .  S
C931        H943   1.105       .  S
C931        H944   1.111       .  S
C945        C946   1.389       .  A
C945        C950   1.402       .  A
C945        H955   1.085       .  S
C946        C947   1.405   1_545  A
C946        C951   1.486   1_545  S
C947        C952   1.506       .  S
C947        C948   1.412       .  A
C948        C949   1.421       .  A
C948        H953   1.080       .  S
C949        C950   1.439   1_565  A
C950        C954   1.506   1_545  S
C951        C956   1.404   1_655  A
C951        C960   1.398   1_665  A
C952        H968   1.108   1_565  S
C952        H969   1.109       .  S
C952        H970   1.111       .  S
C954        H965   1.109       .  S
C954        H966   1.111   1_565  S
C954        H967   1.098   1_565  S
C956        C961   1.510   1_455  S
C956        C957   1.403       .  A
C957        C958   1.420   1_565  A
C957        H962   1.071       .  S
C958        C959   1.430       .  A
C959        C963   1.506       .  S
C959        C960   1.410       .  A
C960        H964   1.083       .  S
C961        H971   1.111   1_655  S
C961        H972   1.110       .  S
C961        H973   1.110       .  S
C963        H974   1.109       .  S
C963        H975   1.103       .  S
C963        H976   1.109       .  S
C977        C978   1.404       .  A
C977        C982   1.406       .  A
C977        H987   1.084   1_545  S
C978        C979   1.412       .  A
C978        C983   1.478       .  S
C979        C984   1.508       .  S
C979        C980   1.396       .  A
C980        C981   1.403       .  A
C980        H985   1.085       .  S
C981        C982   1.419       .  A
C982        C986   1.507   1_545  S
C983        C988   1.406       .  A
C983        C992   1.408   1_545  A
C984       H1000   1.109       .  S
C984       H1001   1.109       .  S
C984       H1002   1.111       .  S
C986        H997   1.111       .  S
C986        H998   1.111       .  S
C986        H999   1.103       .  S
C988        C993   1.502       .  S
C988        C989   1.403       .  A
C989        C990   1.407       .  A
C989        H994   1.083       .  S
C990        C991   1.408   1_545  A
C991        C995   1.508       .  S
C991        C992   1.388       .  A
C992        H996   1.084       .  S
C993       H1003   1.109       .  S
C993       H1004   1.108       .  S
C993       H1005   1.104       .  S
C995       H1006   1.111       .  S
C995       H1007   1.106       .  S
C995       H1008   1.111       .  S
C1009      C1010   1.403       .  A
C1009      C1014   1.393       .  A
C1009      H1019   1.085       .  S
C1010      C1011   1.396       .  A
C1010      C1015   1.471       .  S
C1011      C1016   1.499   1_565  S
C1011      C1012   1.398       .  A
C1012      C1013   1.411       .  A
C1012      H1017   1.081   1_565  S
C1013      C1014   1.416       .  A
C1014      C1018   1.508       .  S
C1015      C1020   1.419   1_565  A
C1015      C1024   1.391       .  A
C1016      H1032   1.110   1_545  S
C1016      H1033   1.106       .  S
C1016      H1034   1.111       .  S
C1018      H1029   1.110       .  S
C1018      H1030   1.110       .  S
C1018      H1031   1.109       .  S
C1020      C1025   1.505       .  S
C1020      C1021   1.393       .  A
C1021      C1022   1.399       .  A
C1021      H1026   1.081       .  S
C1022      C1023   1.435   1_545  A
C1023      C1027   1.513       .  S
C1023      C1024   1.397       .  A
C1024      H1028   1.085       .  S
C1025      H1035   1.111       .  S
C1025      H1036   1.111       .  S
C1025      H1037   1.103       .  S
C1027      H1038   1.111       .  S
C1027      H1039   1.103       .  S
C1027      H1040   1.111       .  S
C1041      C1042   1.403   1_545  A
C1041      C1046   1.412       .  A
C1041      H1051   1.084       .  S
C1042      C1043   1.411       .  A
C1042      C1047   1.494   1_665  S
C1043      C1048   1.511       .  S
C1043      C1044   1.402       .  A
C1044      C1045   1.412       .  A
C1044      H1049   1.076       .  S
C1045      C1046   1.430   1_565  A
C1046      C1050   1.509       .  S
C1047      C1052   1.410       .  A
C1047      C1056   1.395       .  A
C1048      H1064   1.108   1_655  S
C1048      H1065   1.110   1_655  S
C1048      H1066   1.110       .  S
C1050      H1061   1.111       .  S
C1050      H1062   1.110       .  S
C1050      H1063   1.105       .  S
C1052      C1057   1.504       .  S
C1052      C1053   1.414       .  A
C1053      C1054   1.416       .  A
C1053      H1058   1.078       .  S
C1054      C1055   1.434       .  A
C1055      C1059   1.516       .  S
C1055      C1056   1.402       .  A
C1056      H1060   1.085       .  S
C1057      H1067   1.111       .  S
C1057      H1068   1.108       .  S
C1057      H1069   1.110   1_545  S
C1059      H1070   1.111       .  S
C1059      H1071   1.105       .  S
C1059      H1072   1.106   1_545  S
C1073      C1074   1.403   1_565  A
C1073      C1078   1.416       .  A
C1073      H1083   1.084   1_565  S
C1074      C1075   1.408   1_554  A
C1074      C1079   1.507       .  S
C1075      C1080   1.509       .  S
C1075      C1076   1.410   1_545  A
C1076      C1077   1.421   1_556  A
C1076      H1081   1.073       .  S
C1077      C1078   1.433       .  A
C1078      C1082   1.511       .  S
C1079      C1084   1.412       .  A
C1079      C1088   1.404   1_554  A
C1080      H1096   1.110       .  S
C1080      H1097   1.110       .  S
C1080      H1098   1.111       .  S
C1082      H1093   1.111       .  S
C1082      H1094   1.110       .  S
C1082      H1095   1.102       .  S
C1084      C1089   1.504       .  S
C1084      C1085   1.416       .  A
C1085      C1086   1.409       .  A
C1085      H1090   1.083       .  S
C1086      C1087   1.423   1_554  A
C1087      C1091   1.507       .  S
C1087      C1088   1.414       .  A
C1088      H1092   1.084       .  S
C1089      H1099   1.104       .  S
C1089      H1100   1.110       .  S
C1089      H1101   1.110       .  S
C1091      H1102   1.106       .  S
C1091      H1103   1.109       .  S
C1091      H1104   1.111       .  S
C1105      C1106   1.401   1_556  A
C1105      C1110   1.390       .  A
C1105      H1115   1.085       .  S
C1106      C1107   1.400       .  A
C1106      C1111   1.458       .  S
C1107      C1112   1.504       .  S
C1107      C1108   1.397       .  A
C1108      C1109   1.408       .  A
C1108      H1113   1.082       .  S
C1109      C1110   1.412   1_554  A
C1110      C1114   1.509       .  S
C1111      C1116   1.398   1_554  A
C1111      C1120   1.395       .  A
C1112      H1128   1.109       .  S
C1112      H1129   1.111       .  S
C1112      H1130   1.111       .  S
C1114      H1125   1.111       .  S
C1114      H1126   1.106       .  S
C1114      H1127   1.106       .  S
C1116      C1121   1.508       .  S
C1116      C1117   1.396       .  A
C1117      C1118   1.417   1_556  A
C1117      H1122   1.073       .  S
C1118      C1119   1.429       .  A
C1119      C1123   1.513       .  S
C1119      C1120   1.394       .  A
C1120      H1124   1.086       .  S
C1121      H1131   1.110       .  S
C1121      H1132   1.109       .  S
C1121      H1133   1.110       .  S
C1123      H1134   1.111       .  S
C1123      H1135   1.102       .  S
C1123      H1136   1.109       .  S
C1137      C1138   1.402       .  A
C1137      C1142   1.395       .  A
C1137      H1147   1.085       .  S
C1138      C1139   1.406   1_556  A
C1138      C1143   1.471       .  S
C1139      C1144   1.507       .  S
C1139      C1140   1.401       .  A
C1140      C1141   1.409       .  A
C1140      H1145   1.083       .  S
C1141      C1142   1.417   1_554  A
C1142      C1146   1.509       .  S
C1143      C1148   1.412       .  A
C1143      C1152   1.400   1_556  A
C1144      H1160   1.109       .  S
C1144      H1161   1.111       .  S
C1144      H1162   1.110       .  S
C1146      H1157   1.111       .  S
C1146      H1158   1.107       .  S
C1146      H1159   1.108       .  S
C1148      C1153   1.503       .  S
C1148      C1149   1.402       .  A
C1149      C1150   1.402   1_556  A
C1149      H1154   1.084       .  S
C1150      C1151   1.407       .  A
C1151      C1155   1.500       .  S
C1151      C1152   1.390       .  A
C1152      H1156   1.086       .  S
C1153      H1163   1.110       .  S
C1153      H1164   1.110       .  S
C1153      H1165   1.111       .  S
C1155      H1166   1.107       .  S
C1155      H1167   1.105       .  S
C1155      H1168   1.105       .  S
C1169      C1170   1.399       .  A
C1169      C1174   1.411       .  A
C1169      H1179   1.084       .  S
C1170      C1171   1.407   1_554  A
C1170      C1175   1.492   1_565  S
C1171      C1176   1.509       .  S
C1171      C1172   1.404       .  A
C1172      C1173   1.415   1_556  A
C1172      H1177   1.073       .  S
C1173      C1174   1.435       .  A
C1174      C1178   1.515       .  S
C1175      C1180   1.407       .  A
C1175      C1184   1.401       .  A
C1176      H1192   1.109       .  S
C1176      H1193   1.110       .  S
C1176      H1194   1.110       .  S
C1178      H1189   1.102       .  S
C1178      H1190   1.111       .  S
C1178      H1191   1.104       .  S
C1180      C1185   1.507   1_554  S
C1180      C1181   1.404       .  A
C1181      C1182   1.416       .  A
C1181      H1186   1.080   1_554  S
C1182      C1183   1.429       .  A
C1183      C1187   1.509       .  S
C1183      C1184   1.410       .  A
C1184      H1188   1.084       .  S
C1185      H1195   1.111       .  S
C1185      H1196   1.106   1_546  S
C1185      H1197   1.110   1_545  S
C1187      H1198   1.105       .  S
C1187      H1199   1.110       .  S
C1187      H1200   1.111       .  S
C1201      C1202   1.404       .  A
C1201      C1206   1.390       .  A
C1201      H1211   1.085       .  S
C1202      C1203   1.411       .  A
C1202      C1207   1.471   1_565  S
C1203      C1208   1.508       .  S
C1203      C1204   1.403       .  A
C1204      C1205   1.404       .  A
C1204      H1209   1.084       .  S
C1205      C1206   1.408       .  A
C1206      C1210   1.507       .  S
C1207      C1212   1.411       .  A
C1207      C1216   1.403       .  A
C1208      H1224   1.108       .  S
C1208      H1225   1.110       .  S
C1208      H1226   1.109       .  S
C1210      H1221   1.110       .  S
C1210      H1222   1.109       .  S
C1210      H1223   1.105       .  S
C1212      C1217   1.507       .  S
C1212      C1213   1.401       .  A
C1213      C1214   1.403       .  A
C1213      H1218   1.084       .  S
C1214      C1215   1.412       .  A
C1215      C1219   1.508       .  S
C1215      C1216   1.391       .  A
C1216      H1220   1.084       .  S
C1217      H1227   1.110       .  S
C1217      H1228   1.109       .  S
C1217      H1229   1.110       .  S
C1219      H1230   1.111       .  S
C1219      H1231   1.111       .  S
C1219      H1232   1.104       .  S
C1233      C1234   1.394       .  A
C1233      C1238   1.410       .  A
C1233      H1243   1.085       .  S
C1234      C1235   1.408       .  A
C1234      C1239   1.495       .  S
C1235      C1240   1.504       .  S
C1235      C1236   1.410       .  A
C1236      C1237   1.418       .  A
C1236      H1241   1.074       .  S
C1237      C1238   1.432       .  A
C1238      C1242   1.501       .  S
C1239      C1244   1.408       .  A
C1239      C1248   1.402       .  A
C1240      H1256   1.108       .  S
C1240      H1257   1.109       .  S
C1240      H1258   1.111       .  S
C1242      H1253   1.109       .  S
C1242      H1254   1.102       .  S
C1242      H1255   1.090       .  S
C1244      C1249   1.508       .  S
C1244      C1245   1.406       .  A
C1245      C1246   1.411       .  A
C1245      H1250   1.082       .  S
C1246      C1247   1.424       .  A
C1247      C1251   1.506       .  S
C1247      C1248   1.414       .  A
C1248      H1252   1.082       .  S
C1249      H1259   1.111       .  S
C1249      H1260   1.110       .  S
C1249      H1261   1.110       .  S
C1251      H1262   1.108       .  S
C1251      H1263   1.109       .  S
C1251      H1264   1.110       .  S
C1265      C1266   1.401       .  A
C1265      C1270   1.412       .  A
C1265      H1275   1.085       .  S
C1266      C1267   1.414       .  A
C1266      C1271   1.511       .  S
C1267      C1272   1.506       .  S
C1267      C1268   1.418       .  A
C1268      C1269   1.416       .  A
C1268      H1273   1.083       .  S
C1269      C1270   1.426       .  A
C1270      C1274   1.501       .  S
C1271      C1276   1.411       .  A
C1271      C1280   1.400       .  A
C1272      H1288   1.110       .  S
C1272      H1289   1.110       .  S
C1272      H1290   1.111       .  S
C1274      H1285   1.110       .  S
C1274      H1286   1.110       .  S
C1274      H1287   1.095       .  S
C1276      C1281   1.502       .  S
C1276      C1277   1.412       .  A
C1277      C1278   1.417       .  A
C1277      H1282   1.075       .  S
C1278      C1279   1.435       .  A
C1279      C1283   1.504       .  S
C1279      C1280   1.416       .  A
C1280      H1284   1.085       .  S
C1281      H1291   1.111       .  S
C1281      H1292   1.109       .  S
C1281      H1293   1.105       .  S
C1283      H1294   1.110       .  S
C1283      H1295   1.099       .  S
C1283      H1296   1.108       .  S
C1297      C1298   1.395       .  A
C1297      C1302   1.395       .  A
C1297      H1307   1.086       .  S
C1298      C1299   1.398       .  A
C1298      C1303   1.459   1_545  S
C1299      C1304   1.503       .  S
C1299      C1300   1.395       .  A
C1300      C1301   1.415       .  A
C1300      H1305   1.078       .  S
C1301      C1302   1.429       .  A
C1302      C1306   1.514       .  S
C1303      C1308   1.395       .  A
C1303      C1312   1.397       .  A
C1304      H1320   1.108       .  S
C1304      H1321   1.110       .  S
C1304      H1322   1.110       .  S
C1306      H1317   1.110       .  S
C1306      H1318   1.111       .  S
C1306      H1319   1.102       .  S
C1308      C1313   1.502       .  S
C1308      C1309   1.398       .  A
C1309      C1310   1.419       .  A
C1309      H1314   1.077       .  S
C1310      C1311   1.424       .  A
C1311      C1315   1.512       .  S
C1311      C1312   1.387       .  A
C1312      H1316   1.086       .  S
C1313      H1323   1.108       .  S
C1313      H1324   1.108       .  S
C1313      H1325   1.110       .  S
C1315      H1326   1.111       .  S
C1315      H1327   1.102       .  S
C1315      H1328   1.109       .  S
C1329      C1330   1.402       .  A
C1329      C1334   1.398       .  A
C1329      H1339   1.085   1_556  S
C1330      C1331   1.393       .  A
C1330      C1335   1.470   1_556  S
C1331      C1336   1.499       .  S
C1331      C1332   1.400       .  A
C1332      C1333   1.414       .  A
C1332      H1337   1.080       .  S
C1333      C1334   1.420       .  A
C1334      C1338   1.507       .  S
C1335      C1340   1.396       .  A
C1335      C1344   1.408       .  A
C1336      H1352   1.110       .  S
C1336      H1353   1.110       .  S
C1336      H1354   1.107       .  S
C1338      H1349   1.109       .  S
C1338      H1350   1.111       .  S
C1338      H1351   1.108       .  S
C1340      C1345   1.497       .  S
C1340      C1341   1.392       .  A
C1341      C1342   1.416       .  A
C1341      H1346   1.082       .  S
C1342      C1343   1.417       .  A
C1343      C1347   1.509       .  S
C1343      C1344   1.397       .  A
C1344      H1348   1.084   1_554  S
C1345      H1355   1.110       .  S
C1345      H1356   1.110       .  S
C1345      H1357   1.111       .  S
C1347      H1358   1.110       .  S
C1347      H1359   1.105       .  S
C1347      H1360   1.111       .  S
C1361      C1362   1.402       .  A
C1361      C1366   1.417       .  A
C1361      H1371   1.085       .  S
C1362      C1363   1.408       .  A
C1362      C1367   1.502       .  S
C1363      C1368   1.509       .  S
C1363      C1364   1.407       .  A
C1364      C1365   1.421       .  A
C1364      H1369   1.077       .  S
C1365      C1366   1.432       .  A
C1366      C1370   1.506       .  S
C1367      C1372   1.414       .  A
C1367      C1376   1.405       .  A
C1368      H1384   1.110       .  S
C1368      H1385   1.110       .  S
C1368      H1386   1.111       .  S
C1370      H1381   1.109       .  S
C1370      H1382   1.107       .  S
C1370      H1383   1.108       .  S
C1372      C1377   1.506       .  S
C1372      C1373   1.409       .  A
C1373      C1374   1.406       .  A
C1373      H1378   1.084       .  S
C1374      C1375   1.422       .  A
C1375      C1379   1.508       .  S
C1375      C1376   1.414       .  A
C1376      H1380   1.084       .  S
C1377      H1387   1.108       .  S
C1377      H1388   1.110       .  S
C1377      H1389   1.110       .  S
C1379      H1390   1.108       .  S
C1379      H1391   1.110       .  S
C1379      H1392   1.111       .  S
C1393      C1394   1.398       .  A
C1393      C1398   1.399       .  A
C1393      H1403   1.086       .  S
C1394      C1395   1.411       .  A
C1394      C1399   1.497       .  S
C1395      C1400   1.506       .  S
C1395      C1396   1.416       .  A
C1396      C1397   1.418       .  A
C1396      H1401   1.077       .  S
C1397      C1398   1.432       .  A
C1398      C1402   1.514       .  S
C1399      C1404   1.409       .  A
C1399      C1408   1.404       .  A
C1400      H1416   1.109       .  S
C1400      H1417   1.109       .  S
C1400      H1418   1.109       .  S
C1402      H1413   1.111       .  S
C1402      H1414   1.110       .  S
C1402      H1415   1.101       .  S
C1404      C1409   1.511       .  S
C1404      C1405   1.395       .  A
C1405      C1406   1.416       .  A
C1405      H1410   1.080       .  S
C1406      C1407   1.432       .  A
C1407      C1411   1.507       .  S
C1407      C1408   1.417       .  A
C1408      H1412   1.080       .  S
C1409      H1419   1.111       .  S
C1409      H1420   1.110       .  S
C1409      H1421   1.108       .  S
C1411      H1422   1.108       .  S
C1411      H1423   1.110       .  S
C1411      H1424   1.106       .  S
C1425      C1426   1.408       .  A
C1425      C1430   1.390   1_554  A
C1425      H1435   1.084       .  S
C1426      C1427   1.407   1_554  A
C1426      C1431   1.484       .  S
C1427      C1432   1.504       .  S
C1427      C1428   1.409       .  A
C1428      C1429   1.407       .  A
C1428      H1433   1.083       .  S
C1429      C1430   1.408       .  A
C1430      C1434   1.507       .  S
C1431      C1436   1.416       .  A
C1431      C1440   1.401       .  A
C1432      H1448   1.110       .  S
C1432      H1449   1.105       .  S
C1432      H1450   1.108       .  S
C1434      H1445   1.110       .  S
C1434      H1446   1.111       .  S
C1434      H1447   1.109       .  S
C1436      C1441   1.507       .  S
C1436      C1437   1.398       .  A
C1437      C1438   1.402       .  A
C1437      H1442   1.085       .  S
C1438      C1439   1.426       .  A
C1439      C1443   1.505       .  S
C1439      C1440   1.407       .  A
C1440      H1444   1.084       .  S
C1441      H1451   1.110       .  S
C1441      H1452   1.107   1_554  S
C1441      H1453   1.109       .  S
C1443      H1454   1.111       .  S
C1443      H1455   1.107       .  S
C1443      H1456   1.108       .  S
C1457      C1458   1.400       .  A
C1457      C1462   1.389       .  A
C1457      H1467   1.085       .  S
C1458      C1459   1.402       .  A
C1458      C1463   1.460   1_655  S
C1459      C1464   1.502       .  S
C1459      C1460   1.396       .  A
C1460      C1461   1.406       .  A
C1460      H1465   1.083       .  S
C1461      C1462   1.406       .  A
C1462      C1466   1.504       .  S
C1463      C1468   1.416       .  A
C1463      C1472   1.401       .  A
C1464      H1480   1.110       .  S
C1464      H1481   1.105       .  S
C1464      H1482   1.109       .  S
C1466      H1477   1.105       .  S
C1466      H1478   1.104       .  S
C1466      H1479   1.099       .  S
C1468      C1473   1.513       .  S
C1468      C1469   1.390       .  A
C1469      C1470   1.399       .  A
C1469      H1474   1.085       .  S
C1470      C1471   1.407       .  A
C1471      C1475   1.499       .  S
C1471      C1472   1.397       .  A
C1472      H1476   1.085       .  S
C1473      H1483   1.111       .  S
C1473      H1484   1.110   1_455  S
C1473      H1485   1.105   1_455  S
C1475      H1486   1.111       .  S
C1475      H1487   1.111       .  S
C1475      H1488   1.108       .  S
C1489      C1490   1.397       .  A
C1489      C1494   1.409       .  A
C1489      H1499   1.084       .  S
C1490      C1491   1.416       .  A
C1490      C1495   1.505       .  S
C1491      C1496   1.505       .  S
C1491      C1492   1.418       .  A
C1492      C1493   1.411       .  A
C1492      H1497   1.084       .  S
C1493      C1494   1.418       .  A
C1494      C1498   1.489       .  S
C1495      C1500   1.411       .  A
C1495      C1504   1.401       .  A
C1496      H1512   1.110       .  S
C1496      H1513   1.108       .  S
C1496      H1514   1.111       .  S
C1498      H1509   1.106       .  S
C1498      H1510   1.109       .  S
C1498      H1511   1.102       .  S
C1500      C1505   1.507       .  S
C1500      C1501   1.415       .  A
C1501      C1502   1.417       .  A
C1501      H1506   1.078       .  S
C1502      C1503   1.433       .  A
C1503      C1507   1.511       .  S
C1503      C1504   1.412       .  A
C1504      H1508   1.083       .  S
C1505      H1515   1.111       .  S
C1505      H1516   1.111       .  S
C1505      H1517   1.108       .  S
C1507      H1518   1.111       .  S
C1507      H1519   1.102       .  S
C1507      H1520   1.107       .  S
C1521      C1522   1.398       .  A
C1521      C1526   1.403       .  A
C1521      H1531   1.085       .  S
C1522      C1523   1.407       .  A
C1522      C1527   1.483       .  S
C1523      C1528   1.508       .  S
C1523      C1524   1.404       .  A
C1524      C1525   1.415       .  A
C1524      H1529   1.079       .  S
C1525      C1526   1.428       .  A
C1526      C1530   1.510       .  S
C1527      C1532   1.405       .  A
C1527      C1536   1.398       .  A
C1528      H1544   1.109       .  S
C1528      H1545   1.111       .  S
C1528      H1546   1.111       .  S
C1530      H1541   1.111       .  S
C1530      H1542   1.110       .  S
C1530      H1543   1.104       .  S
C1532      C1537   1.509       .  S
C1532      C1533   1.401       .  A
C1533      C1534   1.415       .  A
C1533      H1538   1.074       .  S
C1534      C1535   1.431       .  A
C1535      C1539   1.511       .  S
C1535      C1536   1.405       .  A
C1536      H1540   1.085       .  S
C1537      H1547   1.111       .  S
C1537      H1548   1.109       .  S
C1537      H1549   1.111       .  S
C1539      H1550   1.110       .  S
C1539      H1551   1.104       .  S
C1539      H1552   1.110       .  S
C1553      C1554   1.393   1_455  A
C1553      C1558   1.396       .  A
C1553      H1563   1.083       .  S
C1554      C1555   1.411   1_655  A
C1554      C1559   1.458       .  S
C1555      C1560   1.507   1_455  S
C1555      C1556   1.391       .  A
C1556      C1557   1.402       .  A
C1556      H1561   1.082       .  S
C1557      C1558   1.429       .  A
C1558      C1562   1.511       .  S
C1559      C1564   1.401       .  A
C1559      C1568   1.397       .  A
C1560      H1576   1.108       .  S
C1560      H1577   1.108       .  S
C1560      H1578   1.110       .  S
C1562      H1573   1.111       .  S
C1562      H1574   1.110       .  S
C1562      H1575   1.106       .  S
C1564      C1569   1.498       .  S
C1564      C1565   1.398       .  A
C1565      C1566   1.404       .  A
C1565      H1570   1.082       .  S
C1566      C1567   1.412       .  A
C1567      C1571   1.506       .  S
C1567      C1568   1.389       .  A
C1568      H1572   1.086       .  S
C1569      H1579   1.110       .  S
C1569      H1580   1.104       .  S
C1569      H1581   1.108       .  S
C1571      H1582   1.109       .  S
C1571      H1583   1.103       .  S
C1571      H1584   1.110       .  S
