geometry optimzed in LAMMPS
_audit_creation_date              2020-12-01 
_audit_creation_method            'lammps2cif' 
_symmetry_space_group_name_H-M    'P1' 
_symmetry_Int_Tables_number       1 
_symmetry_cell_setting            triclinic 
loop_ 
_symmetry_equiv_pos_as_xyz 
  x,y,z 
_cell_length_a                    31.61390045 
_cell_length_b                    31.61525165041105 
_cell_length_c                    77.39999403469652 
_cell_angle_alpha                 90.00897343382528 
_cell_angle_beta                  89.99025002673913 
_cell_angle_gamma                 119.99881465983081 
loop_ 
_atom_site_label 
_atom_site_type_symbol 
_atom_site_fract_x 
_atom_site_fract_y 
_atom_site_fract_z 
_atom_site_charge 
Zn1        Zn  0.23218386  0.36787177  0.38441410     1.49700
Zn2        Zn  0.16515852  0.33379119  0.35100682     1.49400
Zn3        Zn  0.13069987  0.26633789  0.38428442     1.49100
Zn4        Zn  0.13072257  0.36789995  0.38404306     1.49500
O5          O  0.16468356  0.33397452  0.37609282    -1.80300
O6          O  0.28062226  0.39189042  0.36465895    -0.70900
O7          O  0.13179821  0.26679174  0.34141995    -0.70700
O8          O  0.17430874  0.25359614  0.39963737    -0.70200
O9          O  0.23228701  0.36724809  0.34155284    -0.70900
O10         O  0.24466169  0.32409421  0.39975980    -0.70500
O11         O  0.10678352  0.21814882  0.36444133    -0.71100
O12         O  0.07398109  0.32423892  0.39921041    -0.70500
O13         O  0.13186733  0.36718298  0.34117995    -0.71300
O14         O  0.07403488  0.25383628  0.39939183    -0.70600
O15         O  0.10696818  0.39162201  0.36402602    -0.71100
O16         O  0.17426732  0.42468554  0.39923404    -0.71000
O17         O  0.24458976  0.42448942  0.39953803    -0.70800
C18         C  0.27433505  0.38846856  0.34836500     0.81000
C19         C  0.11042034  0.22464944  0.34815724     0.81500
C20         C  0.21795535  0.28032404  0.40484358     0.80400
C21         C  0.05690514  0.28055738  0.40439206     0.80800
C22         C  0.11058989  0.38823811  0.34776940     0.81900
C23         C  0.21788939  0.44170234  0.40447760     0.81000
Zn24       Zn  0.03180780  0.46660529  0.27883648     1.49700
Zn25       Zn  0.43029574  0.46642514  0.27922828     1.49400
Zn26       Zn  0.49855126  0.50035625  0.31229111     1.49100
Zn27       Zn  0.03190181  0.06806532  0.27909413     1.49500
O28         O  0.49813087  0.50036680  0.28720769    -1.80300
O29         O  0.48775449  0.41011951  0.26364520    -0.70900
O30         O  0.38262912  0.44260721  0.29920896    -0.70700
O31         O  0.03216210  0.46684927  0.32169468    -0.70200
O32         O  0.41714830  0.40973629  0.26399211    -0.70900
O33         O  0.05607692  0.44246553  0.29856833    -0.70500
O34         O  0.43179913  0.46689474  0.32209020    -0.71100
O35         O  0.05594081  0.11607975  0.29898169    -0.70500
O36         O  0.41739823  0.01019775  0.26408703    -0.71300
O37         O  0.03213905  0.06726271  0.32195550    -0.70600
O38         O  0.48785548  0.08062046  0.26397600    -0.71100
O39         O  0.08842441  0.08102747  0.26378959    -0.71000
O40         O  0.08817758  0.01048986  0.26356189    -0.70800
C41         C  0.44383527  0.39284800  0.25871135     0.81000
C42         C  0.38950558  0.44589661  0.31547252     0.81500
C43         C  0.05306952  0.44573226  0.31486245     0.80400
C44         C  0.05294324  0.10945554  0.31525900     0.80800
C45         C  0.44404095  0.05391030  0.25894445     0.81900
C46         C  0.10533805  0.05432633  0.25854776     0.81000
C47         C  0.16673102  0.33357466  0.82343974     0.49300
H48         H  0.16667261  0.33364525  0.83778601     0.00300
C49         C  0.16683954  0.33342329  0.78972305     0.49400
H50         H  0.16689127  0.33334947  0.77533536     0.00300
C51         C  0.14066225  0.35963181  0.81511484    -0.13400
C52         C  0.21895939  0.35963631  0.81520031    -0.13200
C53         C  0.14066472  0.28134126  0.81520604    -0.13500
C54         C  0.14140057  0.35887371  0.79745253    -0.13500
C55         C  0.21762816  0.35887092  0.79753831    -0.13100
C56         C  0.14140333  0.28264693  0.79754534    -0.13400
C57         C  0.50000978  0.50019250  0.83966911     0.49300
H58         H  0.49981030  0.50023305  0.82532324     0.00300
C59         C  0.50049948  0.00008341  0.87340349     0.49400
H60         H  0.50072039  0.00004185  0.88778584     0.00300
C61         C  0.02623470  0.05233600  0.84794065    -0.13400
C62         C  0.44795283  0.47408032  0.84801706    -0.13200
C63         C  0.02620766  0.47408590  0.84780672    -0.13500
C64         C  0.02586390  0.05100523  0.86560348    -0.13500
C65         C  0.44947531  0.47464991  0.86568186    -0.13100
C66         C  0.02583225  0.47466196  0.86547063    -0.13400
C67         C  0.16486791  0.33401583  0.54020068     0.49300
H68         H  0.16472439  0.33403403  0.55458829     0.00300
C69         C  0.16515341  0.33397313  0.50648391     0.49400
H70         H  0.16528924  0.33394909  0.49213799     0.00300
C71         C  0.19034016  0.38482138  0.53240292    -0.13400
C72         C  0.19036276  0.30860235  0.53248668    -0.13200
C73         C  0.11412925  0.30859394  0.53234492    -0.13500
C74         C  0.19117165  0.38618014  0.51474072    -0.13500
C75         C  0.19118150  0.30789526  0.51482356    -0.13100
C76         C  0.11288387  0.30787960  0.51468564    -0.13400
C77         C  0.33141399  0.16748999  0.45653412     0.49300
H78         H  0.33129462  0.16758312  0.44215174     0.00300
C79         C  0.33171064  0.16727512  0.49026897     0.49400
H80         H  0.33182305  0.16718883  0.50461466     0.00300
C81         C  0.30602756  0.19288463  0.46444360    -0.13400
C82         C  0.30601230  0.11654148  0.46431125    -0.13200
C83         C  0.38237873  0.19289811  0.46430289    -0.13500
C84         C  0.30556099  0.19340771  0.48210915    -0.13500
C85         C  0.30554863  0.11515827  0.48197488    -0.13100
C86         C  0.38381199  0.19341518  0.48196463    -0.13400
Zn87       Zn  0.29848045  0.09922344  0.62864000     1.49700
Zn88       Zn  0.33190575  0.16713947  0.59557413     1.49400
Zn89       Zn  0.29847520  0.20139229  0.62861440     1.49100
Zn90       Zn  0.40030815  0.20100088  0.62857855     1.49500
O91         O  0.33228396  0.16719165  0.62057941    -1.80300
O92         O  0.27407484  0.05095821  0.60870607    -0.70900
O93         O  0.29851142  0.20047321  0.58591454    -0.70700
O94         O  0.24123180  0.15696357  0.64356186    -0.70200
O95         O  0.29849136  0.10046143  0.58594247    -0.70900
O96         O  0.24128619  0.08648905  0.64357723    -0.70500
O97         O  0.27415832  0.22552608  0.60869803    -0.71100
O98         O  0.41345654  0.25842936  0.64347761    -0.70500
O99         O  0.39846455  0.20042696  0.58587726    -0.71300
O100        O  0.34315178  0.25879299  0.64349067    -0.70600
O101        O  0.44823341  0.22507351  0.60857665    -0.71100
O102        O  0.41347270  0.15658052  0.64345011    -0.71000
O103        O  0.34299135  0.08614526  0.64351006    -0.70800
C104        C  0.27739755  0.05806974  0.59245546     0.81000
C105        C  0.27747153  0.22181930  0.59243967     0.81500
C106        C  0.22360177  0.11289342  0.64842483     0.80400
C107        C  0.38723821  0.27632574  0.64832468     0.80800
C108        C  0.44091939  0.22156882  0.59233907     0.81900
C109        C  0.38713234  0.11249927  0.64831737     0.81000
Zn110      Zn  0.99969041  0.00019796  0.73434889     1.49700
Zn111      Zn  0.03339654  0.06839792  0.70134118     1.49400
Zn112      Zn  0.03370848  0.46640313  0.70133719     1.49100
Zn113      Zn  0.43170094  0.46649271  0.70125701     1.49500
O114        O  0.99964058  0.00037299  0.70934332    -1.80300
O115        O  0.03298535  0.06679897  0.74404010    -0.70900
O116        O  0.09082992  0.08142417  0.68648603    -0.70700
O117        O  0.05790603  0.44224153  0.72127574    -0.70200
O118        O  0.05746079  0.11647241  0.72132129    -0.70900
O119        O  0.03302121  0.46684144  0.74403901    -0.70500
O120        O  0.09107310  0.01104625  0.68647380    -0.71100
O121        O  0.41884692  0.40914077  0.68636958    -0.70500
O122        O  0.48897805  0.08145494  0.68641055    -0.71300
O123        O  0.48928431  0.40903527  0.68640135    -0.70600
O124        O  0.41863109  0.01088735  0.68633416    -0.71100
O125        O  0.38349455  0.44232021  0.72119073    -0.71000
O126        O  0.43301303  0.46684241  0.74395585    -0.70800
C127        C  0.05404588  0.10923561  0.73756426     0.81000
C128        C  0.10866347  0.05514268  0.68164903     0.81500
C129        C  0.05430176  0.44571562  0.73753059     0.80400
C130        C  0.44520603  0.39138817  0.68153879     0.80800
C131        C  0.44492753  0.05502313  0.68151899     0.81900
C132        C  0.39062371  0.44574579  0.73743979     0.81000
C133        C  0.33199033  0.16680150  0.17306738     0.49300
H134        H  0.33209570  0.16681849  0.15872153     0.00300
C135        C  0.33169172  0.16677354  0.20680385     0.49400
H136        H  0.33157114  0.16675681  0.22118650     0.00300
C137        C  0.27976291  0.14073631  0.18127698    -0.13400
C138        C  0.35798821  0.14068833  0.18135544    -0.13200
C139        C  0.35800988  0.21895594  0.18133176    -0.13500
C140        C  0.28086649  0.14136862  0.19894078    -0.13500
C141        C  0.35717667  0.14130776  0.19901659    -0.13100
C142        C  0.35719570  0.21767458  0.19899516    -0.13400
C143        C  0.49869645  0.00009232  0.15690242     0.49300
H144        H  0.49866385  0.00011401  0.17124840     0.00300
C145        C  0.49882945  0.00003295  0.12316591     0.49400
H146        H  0.49887893  0.00000946  0.10878319     0.00300
C147        C  0.47267621  0.44791638  0.14865625    -0.13400
C148        C  0.47261949  0.02614635  0.14862902    -0.13200
C149        C  0.05088340  0.02617204  0.14865984    -0.13500
C150        C  0.47340656  0.44915534  0.13099299    -0.13500
C151        C  0.47333827  0.02547546  0.13096714    -0.13100
C152        C  0.04969634  0.02549909  0.13099624    -0.13400
Zn153      Zn  0.09908940  0.29942140  0.94553547     1.49700
Zn154      Zn  0.16590332  0.33347166  0.97894332     1.49400
Zn155      Zn  0.20070468  0.29956371  0.94591471     1.49100
Zn156      Zn  0.20071228  0.40098850  0.94565759     1.49500
O157        O  0.16660491  0.33335800  0.95385660    -1.80300
O158        O  0.05047676  0.27529147  0.96526848    -0.70900
O159        O  0.19917329  0.30009351  0.98878734    -0.70700
O160        O  0.15723497  0.24285859  0.93069082    -0.70200
O161        O  0.09871900  0.29997540  0.98839160    -0.70900
O162        O  0.08682524  0.24289525  0.93038553    -0.70500
O163        O  0.22426370  0.27575767  0.96596122    -0.71100
O164        O  0.25753012  0.41362900  0.93057945    -0.70500
O165        O  0.19918871  0.40045964  0.98852119    -0.71300
O166        O  0.25761564  0.34325845  0.93078076    -0.70600
O167        O  0.22444535  0.44912450  0.96550377    -0.71100
O168        O  0.15714689  0.41367374  0.93028596    -0.71000
O169        O  0.08671056  0.34323951  0.93018396    -0.70800
C170        C  0.05668490  0.27871179  0.98156770     0.81000
C171        C  0.22050634  0.27907253  0.98221471     0.81500
C172        C  0.11361726  0.22579576  0.92543568     0.80400
C173        C  0.27473073  0.38694950  0.92560014     0.80800
C174        C  0.22064020  0.44260224  0.98178537     0.81900
C175        C  0.11349287  0.38698274  0.92508463     0.81000
Zn176      Zn  0.29900644  0.20041803  0.05114970     1.49700
Zn177      Zn  0.33232992  0.16679736  0.01767499     1.49400
Zn178      Zn  0.40054771  0.20053180  0.05071682     1.49100
Zn179      Zn  0.29882939  0.09897328  0.05087165     1.49500
O180        O  0.33268721  0.16667636  0.04275893    -1.80300
O181        O  0.27477701  0.22463897  0.03143337    -0.70900
O182        O  0.39909785  0.20027321  0.00784954    -0.70700
O183        O  0.41371778  0.25721748  0.06595904    -0.70200
O184        O  0.29871365  0.20031591  0.00829652    -0.70900
O185        O  0.34311116  0.25684514  0.06633903    -0.70500
O186        O  0.44826564  0.22436334  0.03072646    -0.71100
O187        O  0.34280925  0.08634854  0.06599694    -0.70500
O188        O  0.29871732  0.09991591  0.00800931    -0.71300
O189        O  0.41335419  0.15668568  0.06586452    -0.70600
O190        O  0.27484189  0.05104059  0.03097129    -0.71100
O191        O  0.24225526  0.08597341  0.06616292    -0.71000
O192        O  0.24259864  0.15655191  0.06642316    -0.70800
C193        C  0.27780596  0.22141885  0.01513837     0.81000
C194        C  0.44140266  0.22118137  0.01446053     0.81500
C195        C  0.38704067  0.27410181  0.07125684     0.80400
C196        C  0.38664071  0.11299482  0.07102090     0.80800
C197        C  0.27788558  0.05771246  0.01469684     0.81900
C198        C  0.22537235  0.11268953  0.07141723     0.81000
C199        C  0.25723273  0.24206011  0.00389056    -0.09400
C200        C  0.24077092  0.25864949  0.99370357    -0.11000
C201        C  0.24099971  0.48365683  0.99312920    -0.09400
C202        C  0.25744324  0.01675500  0.00330957    -0.11000
C203        C  0.01541130  0.25813551  0.99283389    -0.09400
C204        C  0.48225880  0.24159297  0.00300483    -0.11000
C205        C  0.45267787  0.40693873  0.11990783    -0.14700
C206        C  0.43741778  0.37559284  0.10904035     0.09400
C207        C  0.42082096  0.34157224  0.09542972     0.11300
C208        C  0.40625321  0.31214686  0.08389992    -0.15500
C209        C  0.40567993  0.09402992  0.08365929    -0.14700
C210        C  0.42023377  0.07934180  0.09523597     0.09400
C211        C  0.43694342  0.06233490  0.10892474     0.11300
C212        C  0.45238619  0.04662962  0.11985212    -0.15500
C213        C  0.18731201  0.09356102  0.08406863    -0.14700
C214        C  0.15774545  0.07886021  0.09556054     0.09400
C215        C  0.12347519  0.06195412  0.10910422     0.11300
C216        C  0.09197075  0.04643032  0.11992257    -0.15500
C217        C  0.44922299  0.04954749  0.15785218    -0.14700
C218        C  0.42803215  0.07073491  0.16271672     0.09400
C219        C  0.40262731  0.09612359  0.16728806     0.11300
C220        C  0.38142183  0.11730296  0.17214553    -0.15500
C221        C  0.44932609  0.40121069  0.15790256    -0.14700
C222        C  0.42811855  0.35884120  0.16274372     0.09400
C223        C  0.40267735  0.30805538  0.16726289     0.11300
C224        C  0.38143848  0.26568150  0.17209882    -0.15500
C225        C  0.09756162  0.04953588  0.15790698    -0.14700
C226        C  0.13994838  0.07075632  0.16271522     0.09400
C227        C  0.19075052  0.09619102  0.16718290     0.11300
C228        C  0.23312627  0.11740304  0.17200339    -0.15500
C229        C  0.40759154  0.09214683  0.65990516    -0.09400
C230        C  0.42451342  0.07536075  0.66990487    -0.11000
C231        C  0.40779416  0.31704296  0.65992328    -0.09400
C232        C  0.42480324  0.35069381  0.66993010    -0.11000
C233        C  0.14937096  0.07562854  0.67006319    -0.09400
C234        C  0.18298756  0.09255529  0.66005142    -0.11000
C235        C  0.25709537  0.01776871  0.58075998    -0.16200
C236        C  0.24235613  0.48854808  0.56918000     0.09400
C237        C  0.22618757  0.45644811  0.55501640     0.11300
C238        C  0.21122942  0.42663471  0.54363568    -0.15500
C239        C  0.07223625  0.28763477  0.54352204    -0.14700
C240        C  0.04234284  0.27262074  0.55486638     0.09400
C241        C  0.01023651  0.25644136  0.56901245     0.11300
C242        C  0.48107767  0.24174637  0.58060201    -0.15500
C243        C  0.25723232  0.24197541  0.58075800    -0.14700
C244        C  0.24247960  0.25664816  0.56923086     0.09400
C245        C  0.22623459  0.27280478  0.55513414     0.11300
C246        C  0.21124258  0.28774002  0.54377879    -0.15500
C247        C  0.28225662  0.06838603  0.49118997    -0.14700
C248        C  0.26113059  0.02603106  0.49605707     0.09400
C249        C  0.23578371  0.47527610  0.50064040     0.11300
C250        C  0.21460768  0.43293109  0.50551790    -0.15500
C251        C  0.06616402  0.28447079  0.50543153    -0.14700
C252        C  0.02379995  0.26328004  0.50056364     0.09400
C253        C  0.47301060  0.23790086  0.49600744     0.11300
C254        C  0.43062464  0.21674284  0.49116392    -0.15500
C255        C  0.21460576  0.28450036  0.50566360    -0.14700
C256        C  0.23578847  0.26330096  0.50084342     0.09400
C257        C  0.26115063  0.23789785  0.49631180     0.11300
C258        C  0.28229453  0.21671306  0.49143220    -0.15500
C259        C  0.40743853  0.45343390  0.87686505    -0.14700
C260        C  0.37627305  0.43768253  0.88780642     0.09400
C261        C  0.34236931  0.42060269  0.90146676     0.11300
C262        C  0.31292844  0.40588433  0.91299983    -0.15500
C263        C  0.09467866  0.40601492  0.91236818    -0.14700
C264        C  0.08003409  0.42077070  0.90083183     0.09400
C265        C  0.06295559  0.43784744  0.88726419     0.11300
C266        C  0.04713601  0.45355553  0.87646333    -0.15500
C267        C  0.09488789  0.18775108  0.91279215    -0.14700
C268        C  0.08025760  0.15837189  0.90124726     0.09400
C269        C  0.06314744  0.12443687  0.88760897     0.11300
C270        C  0.04726636  0.09316401  0.87671462    -0.15500
C271        C  0.25944751  0.37980770  0.78631615    -0.14700
C272        C  0.28920143  0.39476241  0.77491976     0.09400
C273        C  0.32118544  0.41087366  0.76072974     0.11300
C274        C  0.35034074  0.42554191  0.74913346    -0.15500
C275        C  0.12050746  0.37974647  0.78617592    -0.14700
C276        C  0.10550348  0.39470861  0.77483596     0.09400
C277        C  0.08925107  0.41088741  0.76075147     0.11300
C278        C  0.07450719  0.42556569  0.74922551    -0.15500
C279        C  0.07424682  0.14945387  0.74928945    -0.14700
C280        C  0.08901849  0.17868402  0.76086313     0.09400
C281        C  0.10532272  0.21087622  0.77499504     0.11300
C282        C  0.12041339  0.24078593  0.78634047    -0.15500
C283        C  0.04947382  0.45078769  0.83847266    -0.14700
C284        C  0.07064906  0.42962119  0.83360159     0.09400
C285        C  0.09605036  0.40423630  0.82908839     0.11300
C286        C  0.11725334  0.38304130  0.82428045    -0.15500
C287        C  0.40111539  0.45072898  0.83883798    -0.14700
C288        C  0.35876300  0.42958022  0.83396186     0.09400
C289        C  0.30802426  0.40422341  0.82934354     0.11300
C290        C  0.26569801  0.38305318  0.82443858    -0.15500
C291        C  0.11725809  0.23460198  0.82443957    -0.14700
C292        C  0.09607559  0.19223869  0.82930029     0.09400
C293        C  0.07069836  0.14146025  0.83385694     0.11300
C294        C  0.04953756  0.09909205  0.83871249    -0.15500
C295        C  0.42463338  0.35477522  0.24607439    -0.14700
C296        C  0.40999705  0.32530735  0.23455589     0.09400
C297        C  0.39328427  0.29123361  0.22095811     0.11300
C298        C  0.37795238  0.25987159  0.21009388    -0.15500
C299        C  0.37806238  0.12011060  0.21014105    -0.14700
C300        C  0.39351049  0.10440816  0.22106664     0.09400
C301        C  0.41029474  0.08745324  0.23474700     0.11300
C302        C  0.42493277  0.07282544  0.24631517    -0.15500
C303        C  0.14334612  0.07343167  0.24588107    -0.14700
C304        C  0.17284903  0.08809019  0.23437084     0.09400
C305        C  0.20705432  0.10494262  0.22080981     0.11300
C306        C  0.23854861  0.12044075  0.20998986    -0.15500
C307        C  0.09022577  0.40860888  0.33629767    -0.09400
C308        C  0.07368718  0.42514474  0.32611811    -0.11000
C309        C  0.08995336  0.18357415  0.33681356    -0.09400
C310        C  0.07343164  0.15045130  0.32663814    -0.11000
C311        C  0.34867217  0.42550597  0.32691937    -0.09400
C312        C  0.31554762  0.40899456  0.33709089    -0.11000
C313        C  0.28465357  0.07442071  0.45317836    -0.14700
C314        C  0.26874114  0.04318276  0.44226951     0.09400
C315        C  0.25150546  0.00924600  0.42862888     0.11300
C316        C  0.23673881  0.47982331  0.41709602    -0.15500
C317        C  0.01884161  0.26168371  0.41702434    -0.14700
C318        C  0.48950842  0.24700888  0.42858165     0.09400
C319        C  0.45566874  0.22994130  0.44224572     0.11300
C320        C  0.42447093  0.21415600  0.45316482    -0.15500
C321        C  0.28475012  0.21399401  0.45342894    -0.14700
C322        C  0.26888036  0.22964633  0.44262024     0.09400
C323        C  0.25165164  0.24662540  0.42906048     0.11300
C324        C  0.23686486  0.26130997  0.41754137    -0.15500
Zn325      Zn  0.23218387  0.86787179  0.38441410     1.49700
Zn326      Zn  0.16515853  0.83379123  0.35100681     1.49400
Zn327      Zn  0.13069986  0.76633786  0.38428441     1.49100
Zn328      Zn  0.13072251  0.86789984  0.38404305     1.49500
O329        O  0.16468355  0.83397449  0.37609282    -1.80300
O330        O  0.28062227  0.89189045  0.36465895    -0.70900
O331        O  0.13179822  0.76679179  0.34141994    -0.70700
O332        O  0.17430875  0.75359616  0.39963737    -0.70200
O333        O  0.23228702  0.86724812  0.34155284    -0.70900
O334        O  0.24466170  0.82409424  0.39975981    -0.70500
O335        O  0.10678354  0.71814888  0.36444133    -0.71100
O336        O  0.07398104  0.82423890  0.39921041    -0.70500
O337        O  0.13186735  0.86718302  0.34117994    -0.71300
O338        O  0.07403487  0.75383628  0.39939183    -0.70600
O339        O  0.10696814  0.89162195  0.36402602    -0.71100
O340        O  0.17426729  0.92468547  0.39923404    -0.71000
O341        O  0.24458977  0.92448945  0.39953802    -0.70800
C342        C  0.27433506  0.88846859  0.34836500     0.81000
C343        C  0.11042036  0.72464949  0.34815723     0.81500
C344        C  0.21795536  0.78032407  0.40484358     0.80400
C345        C  0.05690511  0.78055737  0.40439207     0.80800
C346        C  0.11058989  0.88823811  0.34776941     0.81900
C347        C  0.21788936  0.94170231  0.40447759     0.81000
Zn348      Zn  0.03180780  0.96660531  0.27883648     1.49700
Zn349      Zn  0.43029574  0.96642516  0.27922828     1.49400
Zn350      Zn  0.49855125  0.00035623  0.31229111     1.49100
Zn351      Zn  0.03190181  0.56806532  0.27909413     1.49500
O352        O  0.49813087  0.00036679  0.28720769    -1.80300
O353        O  0.48775449  0.91011954  0.26364520    -0.70900
O354        O  0.38262912  0.94260725  0.29920896    -0.70700
O355        O  0.03216210  0.96684928  0.32169468    -0.70200
O356        O  0.41714831  0.90973631  0.26399211    -0.70900
O357        O  0.05607693  0.94246556  0.29856833    -0.70500
O358        O  0.43179913  0.96689475  0.32209020    -0.71100
O359        O  0.05594080  0.61607976  0.29898168    -0.70500
O360        O  0.41739824  0.51019777  0.26408703    -0.71300
O361        O  0.03213907  0.56726277  0.32195550    -0.70600
O362        O  0.48785548  0.58062049  0.26397600    -0.71100
O363        O  0.08842441  0.58102749  0.26378959    -0.71000
O364        O  0.08817758  0.51048988  0.26356189    -0.70800
C365        C  0.44383528  0.89284803  0.25871135     0.81000
C366        C  0.38950558  0.94589664  0.31547252     0.81500
C367        C  0.05306953  0.94573228  0.31486245     0.80400
C368        C  0.05294325  0.60945558  0.31525899     0.80800
C369        C  0.44404095  0.55391032  0.25894445     0.81900
C370        C  0.10533805  0.55432636  0.25854776     0.81000
C371        C  0.16673103  0.83357470  0.82343972     0.49300
H372        H  0.16667262  0.83364528  0.83778580     0.00300
C373        C  0.16683955  0.83342332  0.78972301     0.49400
H374        H  0.16689128  0.83334951  0.77533536     0.00300
C375        C  0.14066226  0.85963184  0.81511481    -0.13400
C376        C  0.21895940  0.85963634  0.81520028    -0.13200
C377        C  0.14066472  0.78134129  0.81520601    -0.13500
C378        C  0.14140058  0.85887374  0.79745251    -0.13500
C379        C  0.21762817  0.85887095  0.79753829    -0.13100
C380        C  0.14140334  0.78264695  0.79754532    -0.13400
C381        C  0.50000977  0.00019251  0.83966911     0.49300
H382        H  0.49981029  0.00023305  0.82532324     0.00300
C383        C  0.50049947  0.50008339  0.87340349     0.49400
H384        H  0.50072036  0.50004180  0.88778584     0.00300
C385        C  0.02623470  0.55233601  0.84794065    -0.13400
C386        C  0.44795284  0.97408034  0.84801706    -0.13200
C387        C  0.02620767  0.97408592  0.84780672    -0.13500
C388        C  0.02586389  0.55100522  0.86560348    -0.13500
C389        C  0.44947532  0.97464995  0.86568186    -0.13100
C390        C  0.02583225  0.97466197  0.86547063    -0.13400
C391        C  0.16486793  0.83401587  0.54020068     0.49300
H392        H  0.16472443  0.83403407  0.55458829     0.00300
C393        C  0.16515348  0.83397317  0.50648391     0.49400
H394        H  0.16528930  0.83394914  0.49213799     0.00300
C395        C  0.19034020  0.88482141  0.53240292    -0.13400
C396        C  0.19036278  0.80860238  0.53248668    -0.13200
C397        C  0.11412927  0.80859396  0.53234493    -0.13500
C398        C  0.19117166  0.88618017  0.51474072    -0.13500
C399        C  0.19118153  0.80789530  0.51482356    -0.13100
C400        C  0.11288391  0.80787965  0.51468564    -0.13400
C401        C  0.33141399  0.66748996  0.45653416     0.49300
H402        H  0.33129457  0.66758305  0.44215172     0.00300
C403        C  0.33171062  0.66727511  0.49026903     0.49400
H404        H  0.33182304  0.66718878  0.50461498     0.00300
C405        C  0.30602753  0.69288455  0.46444362    -0.13400
C406        C  0.30601228  0.61654146  0.46431127    -0.13200
C407        C  0.38237869  0.69289806  0.46430291    -0.13500
C408        C  0.30556099  0.69340767  0.48210919    -0.13500
C409        C  0.30554865  0.61515827  0.48197493    -0.13100
C410        C  0.38381193  0.69341512  0.48196468    -0.13400
Zn411      Zn  0.29848046  0.59922346  0.62864000     1.49700
Zn412      Zn  0.33190574  0.66713948  0.59557414     1.49400
Zn413      Zn  0.29847520  0.70139230  0.62861441     1.49100
Zn414      Zn  0.40030816  0.70100091  0.62857855     1.49500
O415        O  0.33228397  0.66719168  0.62057942    -1.80300
O416        O  0.27407501  0.55095822  0.60870607    -0.70900
O417        O  0.29851133  0.70047306  0.58591454    -0.70700
O418        O  0.24123179  0.65696355  0.64356187    -0.70200
O419        O  0.29849135  0.60046144  0.58594247    -0.70900
O420        O  0.24128613  0.58648889  0.64357721    -0.70500
O421        O  0.27415835  0.72552611  0.60869803    -0.71100
O422        O  0.41345655  0.75842938  0.64347761    -0.70500
O423        O  0.39846455  0.70042700  0.58587726    -0.71300
O424        O  0.34315178  0.75879301  0.64349067    -0.70600
O425        O  0.44823341  0.72507354  0.60857665    -0.71100
O426        O  0.41347261  0.65658039  0.64345010    -0.71000
O427        O  0.34299132  0.58614526  0.64351007    -0.70800
C428        C  0.27739763  0.55806975  0.59245545     0.81000
C429        C  0.27747149  0.72181922  0.59243967     0.81500
C430        C  0.22360175  0.61289333  0.64842482     0.80400
C431        C  0.38723821  0.77632576  0.64832468     0.80800
C432        C  0.44091939  0.72156886  0.59233907     0.81900
C433        C  0.38713229  0.61249920  0.64831738     0.81000
Zn434      Zn  0.99969044  0.50019802  0.73434889     1.49700
Zn435      Zn  0.03339656  0.56839793  0.70134118     1.49400
Zn436      Zn  0.03370851  0.96640315  0.70133719     1.49100
Zn437      Zn  0.43170092  0.96649272  0.70125701     1.49500
O438        O  0.99964059  0.50037300  0.70934331    -1.80300
O439        O  0.03298534  0.56679901  0.74404009    -0.70900
O440        O  0.09082990  0.58142418  0.68648602    -0.70700
O441        O  0.05790605  0.94224156  0.72127574    -0.70200
O442        O  0.05746082  0.61647245  0.72132129    -0.70900
O443        O  0.03302107  0.96684124  0.74403900    -0.70500
O444        O  0.09107308  0.51104624  0.68647379    -0.71100
O445        O  0.41884691  0.90914079  0.68636958    -0.70500
O446        O  0.48897807  0.58145495  0.68641055    -0.71300
O447        O  0.48928433  0.90903532  0.68640134    -0.70600
O448        O  0.41863111  0.51088736  0.68633417    -0.71100
O449        O  0.38349452  0.94232022  0.72119073    -0.71000
O450        O  0.43301295  0.96684244  0.74395586    -0.70800
C451        C  0.05404589  0.60923566  0.73756426     0.81000
C452        C  0.10866343  0.55514267  0.68164902     0.81500
C453        C  0.05430166  0.94571549  0.73753059     0.80400
C454        C  0.44520603  0.89138821  0.68153879     0.80800
C455        C  0.44492754  0.55502314  0.68151900     0.81900
C456        C  0.39062365  0.94574581  0.73743979     0.81000
C457        C  0.33199028  0.66680141  0.17306738     0.49300
H458        H  0.33209574  0.66681852  0.15872153     0.00300
C459        C  0.33169174  0.66677359  0.20680385     0.49400
H460        H  0.33157116  0.66675686  0.22118650     0.00300
C461        C  0.27976288  0.64073626  0.18127698    -0.13400
C462        C  0.35798822  0.64068833  0.18135545    -0.13200
C463        C  0.35800985  0.71895590  0.18133176    -0.13500
C464        C  0.28086649  0.64136861  0.19894078    -0.13500
C465        C  0.35717668  0.64130778  0.19901660    -0.13100
C466        C  0.35719570  0.71767460  0.19899515    -0.13400
C467        C  0.49869645  0.50009238  0.15690242     0.49300
H468        H  0.49866377  0.50011397  0.17124840     0.00300
C469        C  0.49882941  0.50003299  0.12316592     0.49400
H470        H  0.49887878  0.50000937  0.10878320     0.00300
C471        C  0.47267630  0.94791632  0.14865624    -0.13400
C472        C  0.47261951  0.52614644  0.14862902    -0.13200
C473        C  0.05088339  0.52617206  0.14865983    -0.13500
C474        C  0.47340667  0.94915529  0.13099298    -0.13500
C475        C  0.47333829  0.52547555  0.13096714    -0.13100
C476        C  0.04969632  0.52549906  0.13099623    -0.13400
Zn477      Zn  0.09908939  0.79942141  0.94553547     1.49700
Zn478      Zn  0.16590329  0.83347165  0.97894332     1.49400
Zn479      Zn  0.20070468  0.79956373  0.94591471     1.49100
Zn480      Zn  0.20071229  0.90098851  0.94565759     1.49500
O481        O  0.16660491  0.83335802  0.95385660    -1.80300
O482        O  0.05047676  0.77529149  0.96526848    -0.70900
O483        O  0.19917316  0.80009334  0.98878733    -0.70700
O484        O  0.15723497  0.74285861  0.93069081    -0.70200
O485        O  0.09871900  0.79997545  0.98839160    -0.70900
O486        O  0.08682524  0.74289526  0.93038553    -0.70500
O487        O  0.22426371  0.77575770  0.96596122    -0.71100
O488        O  0.25753013  0.91362903  0.93057945    -0.70500
O489        O  0.19918873  0.90045962  0.98852118    -0.71300
O490        O  0.25761565  0.84325849  0.93078076    -0.70600
O491        O  0.22444532  0.94912449  0.96550376    -0.71100
O492        O  0.15714681  0.91367360  0.93028596    -0.71000
O493        O  0.08671053  0.84323951  0.93018397    -0.70800
C494        C  0.05668491  0.77871183  0.98156770     0.81000
C495        C  0.22050623  0.77907241  0.98221470     0.81500
C496        C  0.11361727  0.72579579  0.92543568     0.80400
C497        C  0.27473074  0.88694953  0.92560014     0.80800
C498        C  0.22064019  0.94260224  0.98178536     0.81900
C499        C  0.11349281  0.88698270  0.92508462     0.81000
Zn500      Zn  0.29900646  0.70041804  0.05114969     1.49700
Zn501      Zn  0.33232993  0.66679739  0.01767499     1.49400
Zn502      Zn  0.40054772  0.70053183  0.05071682     1.49100
Zn503      Zn  0.29882938  0.59897329  0.05087166     1.49500
O504        O  0.33268721  0.66667639  0.04275893    -1.80300
O505        O  0.27477703  0.72463901  0.03143337    -0.70900
O506        O  0.39909786  0.70027324  0.00784954    -0.70700
O507        O  0.41371793  0.75721749  0.06595905    -0.70200
O508        O  0.29871366  0.70031593  0.00829653    -0.70900
O509        O  0.34311119  0.75684511  0.06633904    -0.70500
O510        O  0.44826565  0.72436337  0.03072646    -0.71100
O511        O  0.34280926  0.58634858  0.06599694    -0.70500
O512        O  0.29871731  0.59991591  0.00800932    -0.71300
O513        O  0.41335420  0.65668571  0.06586451    -0.70600
O514        O  0.27484187  0.55104055  0.03097134    -0.71100
O515        O  0.24225526  0.58597340  0.06616293    -0.71000
O516        O  0.24259859  0.65655179  0.06642315    -0.70800
C517        C  0.27780599  0.72141888  0.01513837     0.81000
C518        C  0.44140267  0.72118140  0.01446053     0.81500
C519        C  0.38704074  0.77410178  0.07125684     0.80400
C520        C  0.38664072  0.61299485  0.07102090     0.80800
C521        C  0.27788557  0.55771245  0.01469688     0.81900
C522        C  0.22537232  0.61268946  0.07141724     0.81000
C523        C  0.25723272  0.74206011  0.00389055    -0.09400
C524        C  0.24077085  0.75864943  0.99370356    -0.11000
C525        C  0.24099972  0.98365685  0.99312918    -0.09400
C526        C  0.25744322  0.51675497  0.00330959    -0.11000
C527        C  0.01541131  0.75813555  0.99283389    -0.09400
C528        C  0.48225880  0.74159300  0.00300483    -0.11000
C529        C  0.45267803  0.90693873  0.11990783    -0.14700
C530        C  0.43741789  0.87559285  0.10904035     0.09400
C531        C  0.42082096  0.84157220  0.09542973     0.11300
C532        C  0.40625321  0.81214680  0.08389993    -0.15500
C533        C  0.40567994  0.59402996  0.08365928    -0.14700
C534        C  0.42023377  0.57934183  0.09523597     0.09400
C535        C  0.43694342  0.56233495  0.10892473     0.11300
C536        C  0.45238619  0.54662971  0.11985213    -0.15500
C537        C  0.18731199  0.59356095  0.08406863    -0.14700
C538        C  0.15774542  0.57886012  0.09556054     0.09400
C539        C  0.12347513  0.56195403  0.10910422     0.11300
C540        C  0.09197069  0.54643022  0.11992257    -0.15500
C541        C  0.44922300  0.54954756  0.15785218    -0.14700
C542        C  0.42803216  0.57073495  0.16271673     0.09400
C543        C  0.40262731  0.59612362  0.16728807     0.11300
C544        C  0.38142182  0.61730297  0.17214554    -0.15500
C545        C  0.44932614  0.90121067  0.15790256    -0.14700
C546        C  0.42811857  0.85884120  0.16274373     0.09400
C547        C  0.40267733  0.80805539  0.16726288     0.11300
C548        C  0.38143846  0.76568149  0.17209881    -0.15500
C549        C  0.09756160  0.54953589  0.15790696    -0.14700
C550        C  0.13994837  0.57075628  0.16271521     0.09400
C551        C  0.19075054  0.59619092  0.16718290     0.11300
C552        C  0.23312627  0.61740292  0.17200340    -0.15500
C553        C  0.40759151  0.59214680  0.65990516    -0.09400
C554        C  0.42451339  0.57536075  0.66990488    -0.11000
C555        C  0.40779417  0.81704299  0.65992328    -0.09400
C556        C  0.42480325  0.85069385  0.66993010    -0.11000
C557        C  0.14937091  0.57562848  0.67006318    -0.09400
C558        C  0.18298750  0.59255519  0.66005141    -0.11000
C559        C  0.25709543  0.51776872  0.58075998    -0.16200
C560        C  0.24235613  0.98854808  0.56918000     0.09400
C561        C  0.22618758  0.95644813  0.55501640     0.11300
C562        C  0.21122943  0.92663474  0.54363567    -0.15500
C563        C  0.07223627  0.78763481  0.54352204    -0.14700
C564        C  0.04234286  0.77262079  0.55486637     0.09400
C565        C  0.01023653  0.75644140  0.56901244     0.11300
C566        C  0.48107768  0.74174641  0.58060201    -0.15500
C567        C  0.25723220  0.74197525  0.58075799    -0.14700
C568        C  0.24247949  0.75664797  0.56923084     0.09400
C569        C  0.22623447  0.77280461  0.55513413     0.11300
C570        C  0.21124249  0.78773992  0.54377880    -0.15500
C571        C  0.28225658  0.56838596  0.49118999    -0.14700
C572        C  0.26113053  0.52603096  0.49605707     0.09400
C573        C  0.23578375  0.97527617  0.50064041     0.11300
C574        C  0.21460771  0.93293114  0.50551790    -0.15500
C575        C  0.06616404  0.78447082  0.50543152    -0.14700
C576        C  0.02379997  0.76328009  0.50056364     0.09400
C577        C  0.47301062  0.73790084  0.49600744     0.11300
C578        C  0.43062463  0.71674282  0.49116392    -0.15500
C579        C  0.21460579  0.78450039  0.50566361    -0.14700
C580        C  0.23578849  0.76330099  0.50084342     0.09400
C581        C  0.26115065  0.73789788  0.49631180     0.11300
C582        C  0.28229454  0.71671305  0.49143221    -0.15500
C583        C  0.40743855  0.95343394  0.87686506    -0.14700
C584        C  0.37627305  0.93768256  0.88780642     0.09400
C585        C  0.34236931  0.92060272  0.90146676     0.11300
C586        C  0.31292845  0.90588436  0.91299983    -0.15500
C587        C  0.09467861  0.90601486  0.91236818    -0.14700
C588        C  0.08003405  0.92077065  0.90083183     0.09400
C589        C  0.06295553  0.93784735  0.88726419     0.11300
C590        C  0.04713594  0.95355546  0.87646334    -0.15500
C591        C  0.09488791  0.68775113  0.91279215    -0.14700
C592        C  0.08025760  0.65837191  0.90124726     0.09400
C593        C  0.06314741  0.62443684  0.88760897     0.11300
C594        C  0.04726633  0.59316396  0.87671462    -0.15500
C595        C  0.25944753  0.87980774  0.78631615    -0.14700
C596        C  0.28920145  0.89476245  0.77491976     0.09400
C597        C  0.32118542  0.91087368  0.76072975     0.11300
C598        C  0.35034067  0.92554191  0.74913345    -0.15500
C599        C  0.12050746  0.87974651  0.78617592    -0.14700
C600        C  0.10550349  0.89470867  0.77483596     0.09400
C601        C  0.08925106  0.91088739  0.76075146     0.11300
C602        C  0.07450713  0.92556563  0.74922551    -0.15500
C603        C  0.07424683  0.64945391  0.74928945    -0.14700
C604        C  0.08901850  0.67868405  0.76086313     0.09400
C605        C  0.10532272  0.71087624  0.77499504     0.11300
C606        C  0.12041339  0.74078595  0.78634046    -0.15500
C607        C  0.04947382  0.95078771  0.83847266    -0.14700
C608        C  0.07064907  0.92962121  0.83360159     0.09400
C609        C  0.09605038  0.90423633  0.82908839     0.11300
C610        C  0.11725335  0.88304133  0.82428044    -0.15500
C611        C  0.40111539  0.95072900  0.83883798    -0.14700
C612        C  0.35876300  0.92958025  0.83396186     0.09400
C613        C  0.30802425  0.90422344  0.82934354     0.11300
C614        C  0.26569801  0.88305321  0.82443857    -0.15500
C615        C  0.11725809  0.73460201  0.82443956    -0.14700
C616        C  0.09607560  0.69223872  0.82930029     0.09400
C617        C  0.07069836  0.64146026  0.83385695     0.11300
C618        C  0.04953755  0.59909206  0.83871250    -0.15500
C619        C  0.42463338  0.85477524  0.24607438    -0.14700
C620        C  0.40999705  0.82530737  0.23455588     0.09400
C621        C  0.39328427  0.79123364  0.22095810     0.11300
C622        C  0.37795239  0.75987163  0.21009387    -0.15500
C623        C  0.37806239  0.62011064  0.21014105    -0.14700
C624        C  0.39351051  0.60440820  0.22106664     0.09400
C625        C  0.41029475  0.58745327  0.23474700     0.11300
C626        C  0.42493278  0.57282546  0.24631518    -0.15500
C627        C  0.14334612  0.57343170  0.24588108    -0.14700
C628        C  0.17284902  0.58809022  0.23437084     0.09400
C629        C  0.20705432  0.60494266  0.22080982     0.11300
C630        C  0.23854862  0.62044078  0.20998986    -0.15500
C631        C  0.09022580  0.90860892  0.33629769    -0.09400
C632        C  0.07368720  0.92514477  0.32611811    -0.11000
C633        C  0.08995338  0.68357421  0.33681353    -0.09400
C634        C  0.07343165  0.65045133  0.32663812    -0.11000
C635        C  0.34867217  0.92550601  0.32691936    -0.09400
C636        C  0.31554763  0.90899459  0.33709089    -0.11000
C637        C  0.28465352  0.57442063  0.45317839    -0.14700
C638        C  0.26874112  0.54318274  0.44226951     0.09400
C639        C  0.25150548  0.50924602  0.42862890     0.11300
C640        C  0.23673874  0.97982327  0.41709601    -0.15500
C641        C  0.01884158  0.76168369  0.41702435    -0.14700
C642        C  0.48950839  0.74700889  0.42858167     0.09400
C643        C  0.45566870  0.72994132  0.44224573     0.11300
C644        C  0.42447089  0.71415599  0.45316483    -0.15500
C645        C  0.28475012  0.71399399  0.45342895    -0.14700
C646        C  0.26888037  0.72964632  0.44262024     0.09400
C647        C  0.25165167  0.74662544  0.42906049     0.11300
C648        C  0.23686488  0.76131000  0.41754138    -0.15500
Zn649      Zn  0.73218386  0.36787177  0.38441410     1.49700
Zn650      Zn  0.66515851  0.33379119  0.35100682     1.49400
Zn651      Zn  0.63069986  0.26633789  0.38428442     1.49100
Zn652      Zn  0.63072256  0.36789995  0.38404306     1.49500
O653        O  0.66468355  0.33397452  0.37609282    -1.80300
O654        O  0.78062225  0.39189042  0.36465895    -0.70900
O655        O  0.63179820  0.26679174  0.34141995    -0.70700
O656        O  0.67430873  0.25359614  0.39963737    -0.70200
O657        O  0.73228700  0.36724809  0.34155284    -0.70900
O658        O  0.74466168  0.32409421  0.39975980    -0.70500
O659        O  0.60678351  0.21814882  0.36444133    -0.71100
O660        O  0.57398109  0.32423892  0.39921041    -0.70500
O661        O  0.63186732  0.36718298  0.34117995    -0.71300
O662        O  0.57403488  0.25383628  0.39939183    -0.70600
O663        O  0.60696817  0.39162201  0.36402602    -0.71100
O664        O  0.67426732  0.42468554  0.39923404    -0.71000
O665        O  0.74458975  0.42448942  0.39953803    -0.70800
C666        C  0.77433504  0.38846856  0.34836500     0.81000
C667        C  0.61042034  0.22464944  0.34815724     0.81500
C668        C  0.71795534  0.28032404  0.40484358     0.80400
C669        C  0.55690513  0.28055738  0.40439206     0.80800
C670        C  0.61058989  0.38823811  0.34776940     0.81900
C671        C  0.71788938  0.44170234  0.40447760     0.81000
Zn672      Zn  0.53180780  0.46660529  0.27883648     1.49700
Zn673      Zn  0.93029573  0.46642514  0.27922828     1.49400
Zn674      Zn  0.99855125  0.50035624  0.31229111     1.49100
Zn675      Zn  0.53190180  0.06806532  0.27909414     1.49500
O676        O  0.99813087  0.50036679  0.28720769    -1.80300
O677        O  0.98775448  0.41011951  0.26364520    -0.70900
O678        O  0.88262911  0.44260721  0.29920896    -0.70700
O679        O  0.53216210  0.46684928  0.32169468    -0.70200
O680        O  0.91714830  0.40973629  0.26399211    -0.70900
O681        O  0.55607692  0.44246553  0.29856833    -0.70500
O682        O  0.93179912  0.46689474  0.32209020    -0.71100
O683        O  0.55594079  0.11607975  0.29898169    -0.70500
O684        O  0.91739822  0.01019775  0.26408703    -0.71300
O685        O  0.53213905  0.06726271  0.32195550    -0.70600
O686        O  0.98785548  0.08062046  0.26397600    -0.71100
O687        O  0.58842443  0.08102752  0.26378959    -0.71000
O688        O  0.58817758  0.01048990  0.26356190    -0.70800
C689        C  0.94383527  0.39284800  0.25871135     0.81000
C690        C  0.88950557  0.44589661  0.31547252     0.81500
C691        C  0.55306952  0.44573226  0.31486245     0.80400
C692        C  0.55294324  0.10945554  0.31525900     0.80800
C693        C  0.94404094  0.05391030  0.25894445     0.81900
C694        C  0.60533806  0.05432638  0.25854776     0.81000
C695        C  0.66673101  0.33357467  0.82343973     0.49300
H696        H  0.66667259  0.33364527  0.83778600     0.00300
C697        C  0.66683954  0.33342328  0.78972304     0.49400
H698        H  0.66689129  0.33334944  0.77533535     0.00300
C699        C  0.64066224  0.35963181  0.81511483    -0.13400
C700        C  0.71895938  0.35963632  0.81520030    -0.13200
C701        C  0.64066470  0.28134127  0.81520603    -0.13500
C702        C  0.64140056  0.35887371  0.79745252    -0.13500
C703        C  0.71762816  0.35887091  0.79753831    -0.13100
C704        C  0.64140334  0.28264692  0.79754534    -0.13400
C705        C  0.00000977  0.50019251  0.83966911     0.49300
H706        H  0.99981029  0.50023305  0.82532324     0.00300
C707        C  0.00049946  0.00008340  0.87340349     0.49400
H708        H  0.00072035  0.00004186  0.88778584     0.00300
C709        C  0.52623470  0.05233600  0.84794065    -0.13400
C710        C  0.94795282  0.47408033  0.84801705    -0.13200
C711        C  0.52620768  0.47408592  0.84780671    -0.13500
C712        C  0.52586392  0.05100523  0.86560348    -0.13500
C713        C  0.94947528  0.47464994  0.86568186    -0.13100
C714        C  0.52583226  0.47466195  0.86547062    -0.13400
C715        C  0.66486790  0.33401584  0.54020069     0.49300
H716        H  0.66472440  0.33403403  0.55458826     0.00300
C717        C  0.66515346  0.33397313  0.50648391     0.49400
H718        H  0.66528926  0.33394910  0.49213800     0.00300
C719        C  0.69034018  0.38482139  0.53240291    -0.13400
C720        C  0.69036276  0.30860237  0.53248670    -0.13200
C721        C  0.61412924  0.30859394  0.53234492    -0.13500
C722        C  0.69117166  0.38618014  0.51474072    -0.13500
C723        C  0.69118151  0.30789525  0.51482359    -0.13100
C724        C  0.61288389  0.30787961  0.51468564    -0.13400
C725        C  0.83141399  0.16749000  0.45653412     0.49300
H726        H  0.83129461  0.16758313  0.44215174     0.00300
C727        C  0.83171065  0.16727515  0.49026898     0.49400
H728        H  0.83182302  0.16718879  0.50461466     0.00300
C729        C  0.80602757  0.19288465  0.46444360    -0.13400
C730        C  0.80601231  0.11654151  0.46431125    -0.13200
C731        C  0.88237873  0.19289812  0.46430289    -0.13500
C732        C  0.80556099  0.19340772  0.48210915    -0.13500
C733        C  0.80554866  0.11515833  0.48197488    -0.13100
C734        C  0.88381198  0.19341519  0.48196463    -0.13400
Zn735      Zn  0.79848047  0.09922344  0.62864000     1.49700
Zn736      Zn  0.83190573  0.16713947  0.59557413     1.49400
Zn737      Zn  0.79847519  0.20139228  0.62861440     1.49100
Zn738      Zn  0.90030814  0.20100088  0.62857855     1.49500
O739        O  0.83228395  0.16719165  0.62057941    -1.80300
O740        O  0.77407500  0.05095821  0.60870607    -0.70900
O741        O  0.79851142  0.20047321  0.58591454    -0.70700
O742        O  0.74123180  0.15696357  0.64356186    -0.70200
O743        O  0.79849132  0.10046143  0.58594247    -0.70900
O744        O  0.74128617  0.08648903  0.64357722    -0.70500
O745        O  0.77415831  0.22552607  0.60869804    -0.71100
O746        O  0.91345654  0.25842936  0.64347761    -0.70500
O747        O  0.89846454  0.20042695  0.58587726    -0.71300
O748        O  0.84315177  0.25879299  0.64349067    -0.70600
O749        O  0.94823340  0.22507352  0.60857665    -0.71100
O750        O  0.91347270  0.15658053  0.64345011    -0.71000
O751        O  0.84299135  0.08614527  0.64351007    -0.70800
C752        C  0.77739761  0.05806974  0.59245546     0.81000
C753        C  0.77747153  0.22181930  0.59243968     0.81500
C754        C  0.72360176  0.11289341  0.64842483     0.80400
C755        C  0.88723820  0.27632574  0.64832468     0.80800
C756        C  0.94091939  0.22156882  0.59233907     0.81900
C757        C  0.88713234  0.11249928  0.64831737     0.81000
Zn758      Zn  0.49969029  0.00019796  0.73434889     1.49700
Zn759      Zn  0.53339653  0.06839792  0.70134118     1.49400
Zn760      Zn  0.53370850  0.46640315  0.70133719     1.49100
Zn761      Zn  0.93170093  0.46649272  0.70125701     1.49500
O762        O  0.49964055  0.00037299  0.70934332    -1.80300
O763        O  0.53298527  0.06679897  0.74404010    -0.70900
O764        O  0.59082991  0.08142417  0.68648603    -0.70700
O765        O  0.55790614  0.44224171  0.72127575    -0.70200
O766        O  0.55746080  0.11647241  0.72132129    -0.70900
O767        O  0.53302119  0.46684142  0.74403901    -0.70500
O768        O  0.59107309  0.01104625  0.68647380    -0.71100
O769        O  0.91884690  0.40914076  0.68636958    -0.70500
O770        O  0.98897805  0.08145493  0.68641055    -0.71300
O771        O  0.98928431  0.40903528  0.68640134    -0.70600
O772        O  0.91863108  0.01088735  0.68633416    -0.71100
O773        O  0.88349453  0.44232023  0.72119073    -0.71000
O774        O  0.93301303  0.46684243  0.74395585    -0.70800
C775        C  0.55404585  0.10923561  0.73756426     0.81000
C776        C  0.60866346  0.05514268  0.68164903     0.81500
C777        C  0.55430179  0.44571569  0.73753060     0.80400
C778        C  0.94520602  0.39138817  0.68153879     0.80800
C779        C  0.94492752  0.05502313  0.68151899     0.81900
C780        C  0.89062370  0.44574587  0.73743979     0.81000
C781        C  0.83199033  0.16680151  0.17306738     0.49300
H782        H  0.83209574  0.16681852  0.15872153     0.00300
C783        C  0.83169173  0.16677355  0.20680385     0.49400
H784        H  0.83157115  0.16675682  0.22118650     0.00300
C785        C  0.77976291  0.14073630  0.18127697    -0.13400
C786        C  0.85798821  0.14068834  0.18135544    -0.13200
C787        C  0.85800989  0.21895595  0.18133177    -0.13500
C788        C  0.78086648  0.14136861  0.19894077    -0.13500
C789        C  0.85717668  0.14130777  0.19901659    -0.13100
C790        C  0.85719571  0.21767459  0.19899516    -0.13400
C791        C  0.99869644  0.00009231  0.15690242     0.49300
H792        H  0.99866383  0.00011400  0.17124840     0.00300
C793        C  0.99882943  0.00003294  0.12316591     0.49400
H794        H  0.99887891  0.00000946  0.10878319     0.00300
C795        C  0.97267628  0.44791637  0.14865625    -0.13400
C796        C  0.97261947  0.02614635  0.14862901    -0.13200
C797        C  0.55088340  0.02617205  0.14865984    -0.13500
C798        C  0.97340661  0.44915531  0.13099299    -0.13500
C799        C  0.97333826  0.02547546  0.13096714    -0.13100
C800        C  0.54969635  0.02549909  0.13099624    -0.13400
Zn801      Zn  0.59908940  0.29942140  0.94553547     1.49700
Zn802      Zn  0.66590332  0.33347166  0.97894332     1.49400
Zn803      Zn  0.70070467  0.29956371  0.94591471     1.49100
Zn804      Zn  0.70071228  0.40098849  0.94565759     1.49500
O805        O  0.66660490  0.33335800  0.95385660    -1.80300
O806        O  0.55047675  0.27529147  0.96526848    -0.70900
O807        O  0.69917328  0.30009351  0.98878734    -0.70700
O808        O  0.65723497  0.24285859  0.93069082    -0.70200
O809        O  0.59871899  0.29997540  0.98839160    -0.70900
O810        O  0.58682523  0.24289525  0.93038553    -0.70500
O811        O  0.72426369  0.27575767  0.96596122    -0.71100
O812        O  0.75753011  0.41362900  0.93057945    -0.70500
O813        O  0.69918869  0.40045962  0.98852119    -0.71300
O814        O  0.75761563  0.34325845  0.93078076    -0.70600
O815        O  0.72444533  0.44912448  0.96550376    -0.71100
O816        O  0.65714690  0.41367373  0.93028597    -0.71000
O817        O  0.58671057  0.34323950  0.93018397    -0.70800
C818        C  0.55668490  0.27871179  0.98156770     0.81000
C819        C  0.72050633  0.27907253  0.98221471     0.81500
C820        C  0.61361726  0.22579576  0.92543568     0.80400
C821        C  0.77473072  0.38694950  0.92560014     0.80800
C822        C  0.72064018  0.44260223  0.98178536     0.81900
C823        C  0.61349286  0.38698274  0.92508464     0.81000
Zn824      Zn  0.79900647  0.20041803  0.05114970     1.49700
Zn825      Zn  0.83232992  0.16679736  0.01767499     1.49400
Zn826      Zn  0.90054772  0.20053182  0.05071682     1.49100
Zn827      Zn  0.79882938  0.09897329  0.05087165     1.49500
O828        O  0.83268721  0.16667636  0.04275893    -1.80300
O829        O  0.77477701  0.22463898  0.03143337    -0.70900
O830        O  0.89909784  0.20027322  0.00784954    -0.70700
O831        O  0.91371799  0.25721762  0.06595902    -0.70200
O832        O  0.79871364  0.20031591  0.00829652    -0.70900
O833        O  0.84311119  0.25684512  0.06633903    -0.70500
O834        O  0.94826563  0.22436332  0.03072645    -0.71100
O835        O  0.84280924  0.08634854  0.06599694    -0.70500
O836        O  0.79871731  0.09991591  0.00800931    -0.71300
O837        O  0.91335418  0.15668569  0.06586452    -0.70600
O838        O  0.77484188  0.05104059  0.03097129    -0.71100
O839        O  0.74225526  0.08597341  0.06616292    -0.71000
O840        O  0.74259864  0.15655192  0.06642316    -0.70800
C841        C  0.77780596  0.22141885  0.01513837     0.81000
C842        C  0.94140266  0.22118136  0.01446053     0.81500
C843        C  0.88704076  0.27410184  0.07125683     0.80400
C844        C  0.88664070  0.11299482  0.07102090     0.80800
C845        C  0.77788557  0.05771246  0.01469684     0.81900
C846        C  0.72537235  0.11268953  0.07141723     0.81000
C847        C  0.75723272  0.24206011  0.00389056    -0.09400
C848        C  0.74077091  0.25864949  0.99370357    -0.11000
C849        C  0.74099972  0.48365685  0.99312918    -0.09400
C850        C  0.75744323  0.01675500  0.00330957    -0.11000
C851        C  0.51541130  0.25813552  0.99283389    -0.09400
C852        C  0.98225879  0.24159296  0.00300483    -0.11000
C853        C  0.95267799  0.40693873  0.11990784    -0.14700
C854        C  0.93741787  0.37559286  0.10904036     0.09400
C855        C  0.92082097  0.34157226  0.09542973     0.11300
C856        C  0.90625327  0.31214691  0.08389992    -0.15500
C857        C  0.90567993  0.09402992  0.08365929    -0.14700
C858        C  0.92023376  0.07934180  0.09523597     0.09400
C859        C  0.93694341  0.06233490  0.10892474     0.11300
C860        C  0.95238619  0.04662962  0.11985212    -0.15500
C861        C  0.68731201  0.09356102  0.08406863    -0.14700
C862        C  0.65774545  0.07886021  0.09556054     0.09400
C863        C  0.62347518  0.06195412  0.10910422     0.11300
C864        C  0.59197076  0.04643033  0.11992257    -0.15500
C865        C  0.94922298  0.04954749  0.15785218    -0.14700
C866        C  0.92803215  0.07073491  0.16271672     0.09400
C867        C  0.90262731  0.09612358  0.16728806     0.11300
C868        C  0.88142183  0.11730296  0.17214553    -0.15500
C869        C  0.94932613  0.40121069  0.15790257    -0.14700
C870        C  0.92811858  0.35884120  0.16274372     0.09400
C871        C  0.90267734  0.30805539  0.16726289     0.11300
C872        C  0.88143848  0.26568151  0.17209882    -0.15500
C873        C  0.59756162  0.04953586  0.15790697    -0.14700
C874        C  0.63994839  0.07075629  0.16271521     0.09400
C875        C  0.69075057  0.09619099  0.16718290     0.11300
C876        C  0.73312630  0.11740301  0.17200339    -0.15500
C877        C  0.90759154  0.09214684  0.65990516    -0.09400
C878        C  0.92451341  0.07536075  0.66990488    -0.11000
C879        C  0.90779415  0.31704296  0.65992328    -0.09400
C880        C  0.92480323  0.35069382  0.66993010    -0.11000
C881        C  0.64937095  0.07562854  0.67006319    -0.09400
C882        C  0.68298756  0.09255529  0.66005142    -0.11000
C883        C  0.75709542  0.01776871  0.58075998    -0.16200
C884        C  0.74235612  0.48854809  0.56918000     0.09400
C885        C  0.72618757  0.45644812  0.55501640     0.11300
C886        C  0.71122941  0.42663472  0.54363568    -0.15500
C887        C  0.57223624  0.28763478  0.54352204    -0.14700
C888        C  0.54234284  0.27262075  0.55486637     0.09400
C889        C  0.51023652  0.25644136  0.56901244     0.11300
C890        C  0.98107766  0.24174636  0.58060201    -0.15500
C891        C  0.75723232  0.24197540  0.58075800    -0.14700
C892        C  0.74247960  0.25664815  0.56923086     0.09400
C893        C  0.72623458  0.27280479  0.55513415     0.11300
C894        C  0.71124257  0.28774003  0.54377881    -0.15500
C895        C  0.78225662  0.06838605  0.49118996    -0.14700
C896        C  0.76113058  0.02603106  0.49605707     0.09400
C897        C  0.73578370  0.47527609  0.50064041     0.11300
C898        C  0.71460770  0.43293109  0.50551790    -0.15500
C899        C  0.56616403  0.28447078  0.50543153    -0.14700
C900        C  0.52379996  0.26328005  0.50056364     0.09400
C901        C  0.97301058  0.23790085  0.49600744     0.11300
C902        C  0.93062462  0.21674284  0.49116391    -0.15500
C903        C  0.71460578  0.28450036  0.50566362    -0.14700
C904        C  0.73578848  0.26330095  0.50084344     0.09400
C905        C  0.76115062  0.23789784  0.49631180     0.11300
C906        C  0.78229453  0.21671306  0.49143220    -0.15500
C907        C  0.90743850  0.45343390  0.87686505    -0.14700
C908        C  0.87627304  0.43768252  0.88780642     0.09400
C909        C  0.84236930  0.42060269  0.90146676     0.11300
C910        C  0.81292843  0.40588433  0.91299983    -0.15500
C911        C  0.59467862  0.40601490  0.91236818    -0.14700
C912        C  0.58003404  0.42077063  0.90083181     0.09400
C913        C  0.56295557  0.43784735  0.88726418     0.11300
C914        C  0.54713601  0.45355545  0.87646332    -0.15500
C915        C  0.59488789  0.18775108  0.91279215    -0.14700
C916        C  0.58025759  0.15837189  0.90124726     0.09400
C917        C  0.56314743  0.12443687  0.88760897     0.11300
C918        C  0.54726636  0.09316400  0.87671462    -0.15500
C919        C  0.75944752  0.37980769  0.78631615    -0.14700
C920        C  0.78920143  0.39476240  0.77491976     0.09400
C921        C  0.82118544  0.41087370  0.76072975     0.11300
C922        C  0.85034073  0.42554194  0.74913346    -0.15500
C923        C  0.62050746  0.37974646  0.78617590    -0.14700
C924        C  0.60550346  0.39470861  0.77483594     0.09400
C925        C  0.58925105  0.41088741  0.76075147     0.11300
C926        C  0.57450722  0.42556576  0.74922551    -0.15500
C927        C  0.57424683  0.14945387  0.74928945    -0.14700
C928        C  0.58901849  0.17868402  0.76086313     0.09400
C929        C  0.60532271  0.21087621  0.77499504     0.11300
C930        C  0.62041338  0.24078592  0.78634047    -0.15500
C931        C  0.54947381  0.45078769  0.83847265    -0.14700
C932        C  0.57064905  0.42962119  0.83360157     0.09400
C933        C  0.59605035  0.40423630  0.82908837     0.11300
C934        C  0.61725333  0.38304131  0.82428042    -0.15500
C935        C  0.90111538  0.45072897  0.83883797    -0.14700
C936        C  0.85876299  0.42958021  0.83396186     0.09400
C937        C  0.80802424  0.40422341  0.82934354     0.11300
C938        C  0.76569800  0.38305318  0.82443858    -0.15500
C939        C  0.61725808  0.23460198  0.82443957    -0.14700
C940        C  0.59607559  0.19223869  0.82930029     0.09400
C941        C  0.57069835  0.14146024  0.83385694     0.11300
C942        C  0.54953754  0.09909205  0.83871250    -0.15500
C943        C  0.92463337  0.35477522  0.24607439    -0.14700
C944        C  0.90999705  0.32530735  0.23455589     0.09400
C945        C  0.89328427  0.29123362  0.22095811     0.11300
C946        C  0.87795238  0.25987160  0.21009388    -0.15500
C947        C  0.87806237  0.12011060  0.21014105    -0.14700
C948        C  0.89351049  0.10440816  0.22106664     0.09400
C949        C  0.91029474  0.08745324  0.23474700     0.11300
C950        C  0.92493277  0.07282544  0.24631518    -0.15500
C951        C  0.64334616  0.07343178  0.24588108    -0.14700
C952        C  0.67284906  0.08809026  0.23437084     0.09400
C953        C  0.70705432  0.10494265  0.22080982     0.11300
C954        C  0.73854860  0.12044073  0.20998986    -0.15500
C955        C  0.59022577  0.40860888  0.33629767    -0.09400
C956        C  0.57368717  0.42514473  0.32611810    -0.11000
C957        C  0.58995336  0.18357415  0.33681356    -0.09400
C958        C  0.57343164  0.15045130  0.32663814    -0.11000
C959        C  0.84867216  0.42550597  0.32691937    -0.09400
C960        C  0.81554762  0.40899456  0.33709089    -0.11000
C961        C  0.78465357  0.07442071  0.45317836    -0.14700
C962        C  0.76874114  0.04318276  0.44226951     0.09400
C963        C  0.75150546  0.00924601  0.42862889     0.11300
C964        C  0.73673881  0.47982331  0.41709602    -0.15500
C965        C  0.51884161  0.26168371  0.41702434    -0.14700
C966        C  0.98950843  0.24700888  0.42858165     0.09400
C967        C  0.95566874  0.22994131  0.44224571     0.11300
C968        C  0.92447093  0.21415601  0.45316482    -0.15500
C969        C  0.78475011  0.21399402  0.45342894    -0.14700
C970        C  0.76888035  0.22964633  0.44262024     0.09400
C971        C  0.75165163  0.24662540  0.42906048     0.11300
C972        C  0.73686486  0.26130997  0.41754137    -0.15500
Zn973      Zn  0.73218386  0.86787179  0.38441410     1.49700
Zn974      Zn  0.66515851  0.83379121  0.35100681     1.49400
Zn975      Zn  0.63069986  0.76633789  0.38428442     1.49100
Zn976      Zn  0.63072250  0.86789984  0.38404305     1.49500
O977        O  0.66468355  0.83397450  0.37609282    -1.80300
O978        O  0.78062226  0.89189045  0.36465895    -0.70900
O979        O  0.63179821  0.76679178  0.34141995    -0.70700
O980        O  0.67430874  0.75359617  0.39963737    -0.70200
O981        O  0.73228701  0.86724812  0.34155284    -0.70900
O982        O  0.74466169  0.82409424  0.39975981    -0.70500
O983        O  0.60678352  0.71814885  0.36444133    -0.71100
O984        O  0.57398103  0.82423890  0.39921041    -0.70500
O985        O  0.63186734  0.86718302  0.34117994    -0.71300
O986        O  0.57403487  0.75383628  0.39939183    -0.70600
O987        O  0.60696813  0.89162195  0.36402602    -0.71100
O988        O  0.67426729  0.92468548  0.39923404    -0.71000
O989        O  0.74458976  0.92448945  0.39953802    -0.70800
C990        C  0.77433505  0.88846859  0.34836500     0.81000
C991        C  0.61042034  0.72464947  0.34815724     0.81500
C992        C  0.71795536  0.78032407  0.40484358     0.80400
C993        C  0.55690510  0.78055737  0.40439207     0.80800
C994        C  0.61058988  0.88823811  0.34776941     0.81900
C995        C  0.71788935  0.94170232  0.40447759     0.81000
Zn996      Zn  0.53180783  0.96660533  0.27883648     1.49700
Zn997      Zn  0.93029574  0.96642516  0.27922828     1.49400
Zn998      Zn  0.99855125  0.00035623  0.31229111     1.49100
Zn999      Zn  0.53190181  0.56806534  0.27909414     1.49500
O1000       O  0.99813087  0.00036680  0.28720769    -1.80300
O1001       O  0.98775448  0.91011953  0.26364521    -0.70900
O1002       O  0.88262912  0.94260725  0.29920896    -0.70700
O1003       O  0.53216210  0.96684928  0.32169468    -0.70200
O1004       O  0.91714830  0.90973631  0.26399211    -0.70900
O1005       O  0.55607693  0.94246556  0.29856833    -0.70500
O1006       O  0.93179912  0.96689475  0.32209020    -0.71100
O1007       O  0.55594080  0.61607978  0.29898169    -0.70500
O1008       O  0.91739823  0.51019777  0.26408703    -0.71300
O1009       O  0.53213905  0.56726274  0.32195550    -0.70600
O1010       O  0.98785548  0.58062048  0.26397600    -0.71100
O1011       O  0.58842441  0.58102749  0.26378959    -0.71000
O1012       O  0.58817758  0.51048989  0.26356189    -0.70800
C1013       C  0.94383527  0.89284803  0.25871135     0.81000
C1014       C  0.88950558  0.94589664  0.31547252     0.81500
C1015       C  0.55306953  0.94573228  0.31486245     0.80400
C1016       C  0.55294324  0.60945557  0.31525900     0.80800
C1017       C  0.94404095  0.55391032  0.25894445     0.81900
C1018       C  0.60533804  0.55432636  0.25854776     0.81000
C1019       C  0.66673103  0.83357472  0.82343973     0.49300
H1020       H  0.66667261  0.83364527  0.83778578     0.00300
C1021       C  0.66683954  0.83342332  0.78972301     0.49400
H1022       H  0.66689127  0.83334951  0.77533537     0.00300
C1023       C  0.64066226  0.85963186  0.81511481    -0.13400
C1024       C  0.71895940  0.85963636  0.81520027    -0.13200
C1025       C  0.64066472  0.78134130  0.81520603    -0.13500
C1026       C  0.64140056  0.85887373  0.79745251    -0.13500
C1027       C  0.71762816  0.85887095  0.79753829    -0.13100
C1028       C  0.64140333  0.78264695  0.79754535    -0.13400
C1029       C  0.00000978  0.00019251  0.83966911     0.49300
H1030       H  0.99981030  0.00023305  0.82532324     0.00300
C1031       C  0.00049945  0.50008340  0.87340349     0.49400
H1032       H  0.00072032  0.50004182  0.88778585     0.00300
C1033       C  0.52623470  0.55233600  0.84794066    -0.13400
C1034       C  0.94795283  0.97408036  0.84801706    -0.13200
C1035       C  0.52620768  0.97408594  0.84780671    -0.13500
C1036       C  0.52586391  0.55100521  0.86560349    -0.13500
C1037       C  0.94947530  0.97464998  0.86568186    -0.13100
C1038       C  0.52583228  0.97466198  0.86547062    -0.13400
C1039       C  0.66486793  0.83401588  0.54020068     0.49300
H1040       H  0.66472444  0.83403408  0.55458829     0.00300
C1041       C  0.66515349  0.83397318  0.50648391     0.49400
H1042       H  0.66528933  0.83394916  0.49213799     0.00300
C1043       C  0.69034021  0.88482143  0.53240292    -0.13400
C1044       C  0.69036279  0.80860239  0.53248668    -0.13200
C1045       C  0.61412926  0.80859396  0.53234492    -0.13500
C1046       C  0.69117168  0.88618019  0.51474072    -0.13500
C1047       C  0.69118154  0.80789531  0.51482356    -0.13100
C1048       C  0.61288391  0.80787964  0.51468564    -0.13400
C1049       C  0.83141398  0.66748995  0.45653415     0.49300
H1050       H  0.83129455  0.66758305  0.44215172     0.00300
C1051       C  0.83171060  0.66727510  0.49026903     0.49400
H1052       H  0.83182302  0.66718877  0.50461497     0.00300
C1053       C  0.80602752  0.69288455  0.46444361    -0.13400
C1054       C  0.80601226  0.61654146  0.46431126    -0.13200
C1055       C  0.88237868  0.69289805  0.46430290    -0.13500
C1056       C  0.80556097  0.69340766  0.48210919    -0.13500
C1057       C  0.80554863  0.61515827  0.48197493    -0.13100
C1058       C  0.88381192  0.69341511  0.48196468    -0.13400
Zn1059     Zn  0.79848045  0.59922344  0.62864000     1.49700
Zn1060     Zn  0.83190573  0.66713948  0.59557414     1.49400
Zn1061     Zn  0.79847520  0.70139229  0.62861441     1.49100
Zn1062     Zn  0.90030814  0.70100091  0.62857855     1.49500
O1063       O  0.83228396  0.66719168  0.62057941    -1.80300
O1064       O  0.77407500  0.55095823  0.60870607    -0.70900
O1065       O  0.79851133  0.70047307  0.58591454    -0.70700
O1066       O  0.74123178  0.65696355  0.64356187    -0.70200
O1067       O  0.79849134  0.60046145  0.58594247    -0.70900
O1068       O  0.74128613  0.58648889  0.64357721    -0.70500
O1069       O  0.77415835  0.72552612  0.60869803    -0.71100
O1070       O  0.91345654  0.75842939  0.64347761    -0.70500
O1071       O  0.89846454  0.70042700  0.58587726    -0.71300
O1072       O  0.84315178  0.75879302  0.64349067    -0.70600
O1073       O  0.94823340  0.72507354  0.60857665    -0.71100
O1074       O  0.91347260  0.65658039  0.64345010    -0.71000
O1075       O  0.84299131  0.58614525  0.64351007    -0.70800
C1076       C  0.77739762  0.55806975  0.59245546     0.81000
C1077       C  0.77747148  0.72181922  0.59243967     0.81500
C1078       C  0.72360174  0.61289333  0.64842482     0.80400
C1079       C  0.88723821  0.77632577  0.64832469     0.80800
C1080       C  0.94091939  0.72156886  0.59233907     0.81900
C1081       C  0.88713228  0.61249920  0.64831738     0.81000
Zn1082     Zn  0.49969043  0.50019800  0.73434889     1.49700
Zn1083     Zn  0.53339655  0.56839793  0.70134118     1.49400
Zn1084     Zn  0.53370849  0.96640316  0.70133719     1.49100
Zn1085     Zn  0.93170093  0.96649272  0.70125701     1.49500
O1086       O  0.49964058  0.50037300  0.70934331    -1.80300
O1087       O  0.53298533  0.56679901  0.74404009    -0.70900
O1088       O  0.59082990  0.58142418  0.68648603    -0.70700
O1089       O  0.55790603  0.94224158  0.72127574    -0.70200
O1090       O  0.55746081  0.61647245  0.72132129    -0.70900
O1091       O  0.53302099  0.96684123  0.74403899    -0.70500
O1092       O  0.59107306  0.51104624  0.68647378    -0.71100
O1093       O  0.91884691  0.90914079  0.68636958    -0.70500
O1094       O  0.98897806  0.58145495  0.68641055    -0.71300
O1095       O  0.98928432  0.90903532  0.68640134    -0.70600
O1096       O  0.91863111  0.51088736  0.68633417    -0.71100
O1097       O  0.88349455  0.94232024  0.72119073    -0.71000
O1098       O  0.93301302  0.96684243  0.74395585    -0.70800
C1099       C  0.55404588  0.60923566  0.73756426     0.81000
C1100       C  0.60866342  0.55514267  0.68164902     0.81500
C1101       C  0.55430161  0.94571551  0.73753059     0.80400
C1102       C  0.94520603  0.89138821  0.68153879     0.80800
C1103       C  0.94492753  0.55502314  0.68151900     0.81900
C1104       C  0.89062370  0.94574583  0.73743979     0.81000
C1105       C  0.83199028  0.66680140  0.17306738     0.49300
H1106       H  0.83209577  0.66681853  0.15872153     0.00300
C1107       C  0.83169173  0.66677359  0.20680385     0.49400
H1108       H  0.83157116  0.66675687  0.22118650     0.00300
C1109       C  0.77976288  0.64073625  0.18127698    -0.13400
C1110       C  0.85798824  0.64068835  0.18135545    -0.13200
C1111       C  0.85800985  0.71895590  0.18133176    -0.13500
C1112       C  0.78086648  0.64136860  0.19894077    -0.13500
C1113       C  0.85717669  0.64130779  0.19901660    -0.13100
C1114       C  0.85719570  0.71767461  0.19899515    -0.13400
C1115       C  0.99869644  0.50009238  0.15690242     0.49300
H1116       H  0.99866378  0.50011397  0.17124840     0.00300
C1117       C  0.99882942  0.50003295  0.12316591     0.49400
H1118       H  0.99887888  0.50000945  0.10878319     0.00300
C1119       C  0.97267628  0.94791631  0.14865624    -0.13400
C1120       C  0.97261949  0.52614642  0.14862902    -0.13200
C1121       C  0.55088339  0.52617204  0.14865983    -0.13500
C1122       C  0.97340666  0.94915529  0.13099298    -0.13500
C1123       C  0.97333825  0.52547548  0.13096714    -0.13100
C1124       C  0.54969632  0.52549905  0.13099624    -0.13400
Zn1125     Zn  0.59908938  0.79942141  0.94553547     1.49700
Zn1126     Zn  0.66590330  0.83347166  0.97894332     1.49400
Zn1127     Zn  0.70070468  0.79956372  0.94591471     1.49100
Zn1128     Zn  0.70071228  0.90098851  0.94565759     1.49500
O1129       O  0.66660491  0.83335802  0.95385660    -1.80300
O1130       O  0.55047676  0.77529149  0.96526848    -0.70900
O1131       O  0.69917329  0.80009337  0.98878731    -0.70700
O1132       O  0.65723497  0.74285862  0.93069081    -0.70200
O1133       O  0.59871900  0.79997544  0.98839160    -0.70900
O1134       O  0.58682523  0.74289526  0.93038553    -0.70500
O1135       O  0.72426370  0.77575767  0.96596121    -0.71100
O1136       O  0.75753012  0.91362903  0.93057945    -0.70500
O1137       O  0.69918872  0.90045963  0.98852118    -0.71300
O1138       O  0.75761564  0.84325849  0.93078076    -0.70600
O1139       O  0.72444532  0.94912449  0.96550376    -0.71100
O1140       O  0.65714681  0.91367360  0.93028596    -0.71000
O1141       O  0.58671053  0.84323950  0.93018397    -0.70800
C1142       C  0.55668491  0.77871183  0.98156770     0.81000
C1143       C  0.72050630  0.77907240  0.98221469     0.81500
C1144       C  0.61361726  0.72579579  0.92543568     0.80400
C1145       C  0.77473073  0.88694953  0.92560014     0.80800
C1146       C  0.72064018  0.94260224  0.98178536     0.81900
C1147       C  0.61349280  0.88698269  0.92508463     0.81000
Zn1148     Zn  0.79900645  0.70041804  0.05114970     1.49700
Zn1149     Zn  0.83232993  0.66679739  0.01767499     1.49400
Zn1150     Zn  0.90054771  0.70053183  0.05071682     1.49100
Zn1151     Zn  0.79882937  0.59897330  0.05087166     1.49500
O1152       O  0.83268720  0.66667638  0.04275893    -1.80300
O1153       O  0.77477703  0.72463901  0.03143338    -0.70900
O1154       O  0.89909785  0.70027325  0.00784954    -0.70700
O1155       O  0.91371792  0.75721749  0.06595905    -0.70200
O1156       O  0.79871367  0.70031592  0.00829653    -0.70900
O1157       O  0.84311118  0.75684511  0.06633904    -0.70500
O1158       O  0.94826564  0.72436337  0.03072646    -0.71100
O1159       O  0.84280925  0.58634857  0.06599694    -0.70500
O1160       O  0.79871731  0.59991593  0.00800930    -0.71300
O1161       O  0.91335419  0.65668571  0.06586451    -0.70600
O1162       O  0.77484189  0.55104061  0.03097129    -0.71100
O1163       O  0.74225525  0.58597340  0.06616293    -0.71000
O1164       O  0.74259858  0.65655179  0.06642315    -0.70800
C1165       C  0.77780599  0.72141887  0.01513837     0.81000
C1166       C  0.94140267  0.72118140  0.01446053     0.81500
C1167       C  0.88704073  0.77410178  0.07125684     0.80400
C1168       C  0.88664071  0.61299485  0.07102090     0.80800
C1169       C  0.77788557  0.55771248  0.01469684     0.81900
C1170       C  0.72537231  0.61268946  0.07141724     0.81000
C1171       C  0.75723273  0.74206009  0.00389054    -0.09400
C1172       C  0.74077089  0.75864944  0.99370355    -0.11000
C1173       C  0.74099971  0.98365685  0.99312918    -0.09400
C1174       C  0.75744323  0.51675501  0.00330956    -0.11000
C1175       C  0.51541131  0.75813555  0.99283389    -0.09400
C1176       C  0.98225880  0.74159300  0.00300483    -0.11000
C1177       C  0.95267802  0.90693873  0.11990783    -0.14700
C1178       C  0.93741788  0.87559285  0.10904035     0.09400
C1179       C  0.92082095  0.84157220  0.09542973     0.11300
C1180       C  0.90625321  0.81214680  0.08389993    -0.15500
C1181       C  0.90567993  0.59402995  0.08365929    -0.14700
C1182       C  0.92023377  0.57934183  0.09523597     0.09400
C1183       C  0.93694342  0.56233494  0.10892474     0.11300
C1184       C  0.95238619  0.54662967  0.11985213    -0.15500
C1185       C  0.68731198  0.59356095  0.08406863    -0.14700
C1186       C  0.65774541  0.57886012  0.09556054     0.09400
C1187       C  0.62347512  0.56195403  0.10910422     0.11300
C1188       C  0.59197068  0.54643020  0.11992257    -0.15500
C1189       C  0.94922300  0.54954754  0.15785218    -0.14700
C1190       C  0.92803216  0.57073494  0.16271672     0.09400
C1191       C  0.90262732  0.59612361  0.16728806     0.11300
C1192       C  0.88142183  0.61730296  0.17214554    -0.15500
C1193       C  0.94932613  0.90121066  0.15790256    -0.14700
C1194       C  0.92811856  0.85884120  0.16274373     0.09400
C1195       C  0.90267733  0.80805539  0.16726288     0.11300
C1196       C  0.88143846  0.76568150  0.17209881    -0.15500
C1197       C  0.59756158  0.54953587  0.15790697    -0.14700
C1198       C  0.63994835  0.57075625  0.16271520     0.09400
C1199       C  0.69075056  0.59619088  0.16718290     0.11300
C1200       C  0.73312630  0.61740289  0.17200340    -0.15500
C1201       C  0.90759150  0.59214680  0.65990516    -0.09400
C1202       C  0.92451339  0.57536075  0.66990488    -0.11000
C1203       C  0.90779416  0.81704299  0.65992328    -0.09400
C1204       C  0.92480324  0.85069385  0.66993010    -0.11000
C1205       C  0.64937090  0.57562849  0.67006318    -0.09400
C1206       C  0.68298750  0.59255519  0.66005141    -0.11000
C1207       C  0.75709543  0.51776873  0.58075998    -0.16200
C1208       C  0.74235612  0.98854809  0.56918000     0.09400
C1209       C  0.72618756  0.95644814  0.55501640     0.11300
C1210       C  0.71122942  0.92663475  0.54363567    -0.15500
C1211       C  0.57223627  0.78763482  0.54352204    -0.14700
C1212       C  0.54234286  0.77262079  0.55486637     0.09400
C1213       C  0.51023653  0.75644140  0.56901244     0.11300
C1214       C  0.98107768  0.74174640  0.58060200    -0.15500
C1215       C  0.75723219  0.74197525  0.58075799    -0.14700
C1216       C  0.74247948  0.75664797  0.56923084     0.09400
C1217       C  0.72623446  0.77280461  0.55513413     0.11300
C1218       C  0.71124248  0.78773992  0.54377880    -0.15500
C1219       C  0.78225656  0.56838595  0.49118999    -0.14700
C1220       C  0.76113052  0.52603095  0.49605707     0.09400
C1221       C  0.73578374  0.97527617  0.50064041     0.11300
C1222       C  0.71460772  0.93293116  0.50551790    -0.15500
C1223       C  0.56616408  0.78447080  0.50543152    -0.14700
C1224       C  0.52380002  0.76328006  0.50056363     0.09400
C1225       C  0.97301060  0.73790087  0.49600745     0.11300
C1226       C  0.93062463  0.71674284  0.49116393    -0.15500
C1227       C  0.71460579  0.78450039  0.50566361    -0.14700
C1228       C  0.73578849  0.76330099  0.50084342     0.09400
C1229       C  0.76115065  0.73789788  0.49631180     0.11300
C1230       C  0.78229453  0.71671305  0.49143221    -0.15500
C1231       C  0.90743853  0.95343394  0.87686505    -0.14700
C1232       C  0.87627305  0.93768256  0.88780642     0.09400
C1233       C  0.84236931  0.92060272  0.90146676     0.11300
C1234       C  0.81292844  0.90588436  0.91299983    -0.15500
C1235       C  0.59467859  0.90601487  0.91236818    -0.14700
C1236       C  0.58003406  0.92077066  0.90083182     0.09400
C1237       C  0.56295560  0.93784738  0.88726419     0.11300
C1238       C  0.54713602  0.95355548  0.87646333    -0.15500
C1239       C  0.59488790  0.68775113  0.91279215    -0.14700
C1240       C  0.58025759  0.65837191  0.90124726     0.09400
C1241       C  0.56314740  0.62443684  0.88760897     0.11300
C1242       C  0.54726632  0.59316395  0.87671463    -0.15500
C1243       C  0.75944752  0.87980773  0.78631615    -0.14700
C1244       C  0.78920143  0.89476245  0.77491975     0.09400
C1245       C  0.82118544  0.91087370  0.76072975     0.11300
C1246       C  0.85034073  0.92554195  0.74913346    -0.15500
C1247       C  0.62050745  0.87974651  0.78617592    -0.14700
C1248       C  0.60550349  0.89470866  0.77483595     0.09400
C1249       C  0.58925105  0.91088741  0.76075146     0.11300
C1250       C  0.57450710  0.92556567  0.74922552    -0.15500
C1251       C  0.57424683  0.64945392  0.74928946    -0.14700
C1252       C  0.58901850  0.67868407  0.76086313     0.09400
C1253       C  0.60532271  0.71087622  0.77499504     0.11300
C1254       C  0.62041338  0.74078593  0.78634047    -0.15500
C1255       C  0.54947382  0.95078771  0.83847265    -0.14700
C1256       C  0.57064907  0.92962121  0.83360159     0.09400
C1257       C  0.59605037  0.90423633  0.82908839     0.11300
C1258       C  0.61725335  0.88304134  0.82428044    -0.15500
C1259       C  0.90111539  0.95072900  0.83883798    -0.14700
C1260       C  0.85876300  0.92958025  0.83396186     0.09400
C1261       C  0.80802425  0.90422345  0.82934354     0.11300
C1262       C  0.76569802  0.88305322  0.82443857    -0.15500
C1263       C  0.61725809  0.73460201  0.82443957    -0.14700
C1264       C  0.59607560  0.69223873  0.82930030     0.09400
C1265       C  0.57069835  0.64146026  0.83385695     0.11300
C1266       C  0.54953754  0.59909205  0.83871250    -0.15500
C1267       C  0.92463337  0.85477525  0.24607438    -0.14700
C1268       C  0.90999705  0.82530737  0.23455588     0.09400
C1269       C  0.89328427  0.79123364  0.22095810     0.11300
C1270       C  0.87795238  0.75987164  0.21009387    -0.15500
C1271       C  0.87806239  0.62011064  0.21014106    -0.14700
C1272       C  0.89351050  0.60440819  0.22106665     0.09400
C1273       C  0.91029475  0.58745327  0.23474701     0.11300
C1274       C  0.92493277  0.57282546  0.24631518    -0.15500
C1275       C  0.64334611  0.57343170  0.24588107    -0.14700
C1276       C  0.67284902  0.58809022  0.23437084     0.09400
C1277       C  0.70705432  0.60494266  0.22080981     0.11300
C1278       C  0.73854862  0.62044078  0.20998986    -0.15500
C1279       C  0.59022579  0.90860892  0.33629769    -0.09400
C1280       C  0.57368720  0.92514477  0.32611811    -0.11000
C1281       C  0.58995336  0.68357419  0.33681356    -0.09400
C1282       C  0.57343164  0.65045133  0.32663814    -0.11000
C1283       C  0.84867216  0.92550601  0.32691937    -0.09400
C1284       C  0.81554762  0.90899459  0.33709089    -0.11000
C1285       C  0.78465352  0.57442063  0.45317838    -0.14700
C1286       C  0.76874112  0.54318274  0.44226951     0.09400
C1287       C  0.75150547  0.50924602  0.42862890     0.11300
C1288       C  0.73673874  0.97982328  0.41709601    -0.15500
C1289       C  0.51884158  0.76168369  0.41702435    -0.14700
C1290       C  0.98950839  0.74700889  0.42858167     0.09400
C1291       C  0.95566870  0.72994133  0.44224573     0.11300
C1292       C  0.92447087  0.71415599  0.45316483    -0.15500
C1293       C  0.78475011  0.71399399  0.45342895    -0.14700
C1294       C  0.76888036  0.72964632  0.44262024     0.09400
C1295       C  0.75165166  0.74662544  0.42906049     0.11300
C1296       C  0.73686487  0.76131000  0.41754138    -0.15500
loop_ 
_geom_bond_atom_site_label_1 
_geom_bond_atom_site_label_2 
_geom_bond_distance 
_geom_bond_site_symmetry_2 
_ccdc_geom_bond_type 
Zn1           O5   1.957       .  S
Zn1           O6   2.024       .  S
Zn1          O10   2.007       .  S
Zn1          O17   2.006       .  S
Zn2           O5   1.942       .  S
Zn2           O7   1.979       .  S
Zn2           O9   1.978       .  S
Zn2          O13   1.978       .  S
Zn3           O5   1.957       .  S
Zn3           O8   2.008       .  S
Zn3          O11   2.025       .  S
Zn3          O14   2.006       .  S
Zn4           O5   1.958       .  S
Zn4          O12   2.006       .  S
Zn4          O15   2.023       .  S
Zn4          O16   2.007       .  S
O6           C18   1.273       .  A
O7           C19   1.266       .  A
O8           C20   1.271       .  A
O9           C18   1.266       .  A
O10          C20   1.271       .  A
O11          C19   1.273       .  A
O12          C21   1.270       .  A
O13          C22   1.266       .  A
O14          C21   1.270       .  A
O15          C22   1.273       .  A
O16          C23   1.271       .  A
O17          C23   1.270       .  A
C18         C312   1.426       .  S
C19         C309   1.427       .  S
C20         C324   1.430       .  S
C21         C317   1.429       .  S
C22         C307   1.426       .  S
C23         C316   1.429       .  S
Zn24        O676   1.957   1_455  S
Zn24         O33   2.022       .  S
Zn24        O677   2.006   1_455  S
Zn24        O364   2.006       .  S
Zn25         O28   1.957       .  S
Zn25         O30   2.023       .  S
Zn25         O32   2.008       .  S
Zn25        O360   2.005       .  S
Zn26         O28   1.942       .  S
Zn26         O34   1.979       .  S
Zn26        O679   1.977       .  S
Zn26       O1009   1.979       .  S
Zn27       O1000   1.957   1_455  S
Zn27         O35   2.024       .  S
Zn27         O39   2.008       .  S
Zn27        O686   2.005   1_455  S
O28        Zn672   1.957       .  S
O28        Zn999   1.957       .  S
O29        Zn672   2.006       .  S
O29          C41   1.270       .  A
O30          C42   1.273       .  A
O31        Zn674   1.977   1_455  S
O31          C43   1.266       .  A
O32          C41   1.271       .  A
O33          C43   1.273       .  A
O34          C42   1.266       .  A
O35          C44   1.273       .  A
O36        Zn349   2.005   1_545  S
O36          C45   1.270       .  A
O37        Zn998   1.979   1_455  S
O37          C44   1.266       .  A
O38        Zn675   2.005       .  S
O38          C45   1.270       .  A
O39          C46   1.271       .  A
O40        Zn348   2.006   1_545  S
O40          C46   1.270       .  A
C41         C295   1.429       .  S
C42         C311   1.426       .  S
C43         C308   1.426       .  S
C44         C310   1.427       .  S
C45         C302   1.428       .  S
C46         C303   1.430       .  S
C47          H48   1.110       .  S
C47          C53   1.566       .  S
C47          C52   1.566       .  S
C47          C51   1.566       .  S
C49          H50   1.114       .  S
C49          C55   1.516       .  S
C49          C54   1.516       .  S
C49          C56   1.516       .  S
C51          C54   1.368       .  D
C51         C286   1.465       .  S
C52          C55   1.368       .  D
C52         C290   1.466       .  S
C53          C56   1.367       .  D
C53         C291   1.466       .  S
C54         C275   1.439       .  S
C55         C271   1.437       .  S
C56         C282   1.437       .  S
C57          H58   1.110       .  S
C57          C62   1.565       .  S
C57         C711   1.565       .  S
C57        C1033   1.565       .  S
C59          H60   1.113       .  S
C59         C389   1.520   1_545  S
C59         C712   1.519       .  S
C59        C1038   1.519   1_545  S
C61        C1029   1.565       .  S
C61          C64   1.368       .  D
C61         C294   1.466       .  S
C62          C65   1.368       .  D
C62         C287   1.466       .  S
C63         C705   1.565       .  S
C63          C66   1.367       .  D
C63         C283   1.465       .  S
C64         C707   1.519       .  S
C64         C270   1.439       .  S
C65         C383   1.520       .  S
C65         C259   1.440       .  S
C66        C1031   1.519       .  S
C66         C266   1.440       .  S
C67          H68   1.114       .  S
C67          C73   1.516       .  S
C67          C72   1.516       .  S
C67          C71   1.516       .  S
C69          H70   1.110       .  S
C69          C75   1.566       .  S
C69          C74   1.566       .  S
C69          C76   1.565       .  S
C71          C74   1.368       .  D
C71         C238   1.437       .  S
C72          C75   1.368       .  D
C72         C246   1.439       .  S
C73          C76   1.367       .  D
C73         C239   1.437       .  S
C74         C250   1.466       .  S
C75         C255   1.465       .  S
C76         C251   1.466       .  S
C77          H78   1.113       .  S
C77          C83   1.519       .  S
C77          C82   1.519       .  S
C77          C81   1.519       .  S
C79          H80   1.110       .  S
C79          C85   1.565       .  S
C79          C84   1.565       .  S
C79          C86   1.565       .  S
C81          C84   1.368       .  D
C81         C321   1.440       .  S
C82          C85   1.368       .  D
C82         C313   1.440       .  S
C83          C86   1.368       .  D
C83         C320   1.439       .  S
C84         C258   1.465       .  S
C85         C247   1.466       .  S
C86         C254   1.466       .  S
Zn87         O91   1.963       .  S
Zn87         O92   2.031       .  S
Zn87         O96   2.010       .  S
Zn87        O103   2.015       .  S
Zn88         O91   1.935       .  S
Zn88         O93   1.974       .  S
Zn88         O95   1.972       .  S
Zn88         O99   1.971       .  S
Zn89         O91   1.963       .  S
Zn89         O94   2.011       .  S
Zn89         O97   2.034       .  S
Zn89        O100   2.013       .  S
Zn90         O91   1.963       .  S
Zn90         O98   2.011       .  S
Zn90        O101   2.029       .  S
Zn90        O102   2.014       .  S
O92         C104   1.273       .  A
O93         C105   1.266       .  A
O94         C106   1.272       .  A
O95         C104   1.265       .  A
O96         C106   1.272       .  A
O97         C105   1.273       .  A
O98         C107   1.271       .  A
O99         C108   1.265       .  A
O100        C107   1.272       .  A
O101        C108   1.273       .  A
O102        C109   1.272       .  A
O103        C109   1.272       .  A
C104        C235   1.427       .  S
C105        C243   1.429       .  S
C106        C234   1.430       .  S
C107        C231   1.431       .  S
C108        C242   1.426       .  S
C109        C229   1.433       .  S
Zn110       O114   1.935       .  S
Zn110       O115   1.972   1_655  S
Zn110       O443   1.974   1_645  S
Zn110      O1098   1.971   1_545  S
Zn111       O114   1.963   1_455  S
Zn111       O116   2.010       .  S
Zn111       O118   2.031       .  S
Zn111       O770   2.014   1_455  S
Zn112       O438   1.963   1_455  S
Zn112       O117   2.034       .  S
Zn112       O444   2.011       .  S
Zn112       O771   2.013   1_455  S
Zn113      O1086   1.963       .  S
Zn113       O121   2.011       .  S
Zn113       O125   2.030       .  S
Zn113       O448   2.014       .  S
O114       Zn436   1.963   1_645  S
O114      Zn1085   1.963   1_545  S
O115        C127   1.265       .  A
O116        C128   1.271       .  A
O117        C129   1.273       .  A
O118        C127   1.273       .  A
O119       Zn434   1.974   1_455  S
O119        C129   1.266       .  A
O120       Zn436   2.011   1_545  S
O120        C128   1.272       .  A
O121        C130   1.272       .  A
O122       Zn759   2.014       .  S
O122        C131   1.272       .  A
O123       Zn760   2.013       .  S
O123        C130   1.272       .  A
O124       Zn437   2.014   1_545  S
O124        C131   1.272       .  A
O125        C132   1.273       .  A
O126      Zn1082   1.971       .  S
O126        C132   1.265       .  A
C127        C279   1.427       .  S
C128        C233   1.430       .  S
C129        C278   1.428       .  S
C130        C232   1.431       .  S
C131        C230   1.433       .  S
C132        C274   1.427       .  S
C133        H134   1.110       .  S
C133        C139   1.565       .  S
C133        C138   1.564       .  S
C133        C137   1.565       .  S
C135        H136   1.113       .  S
C135        C141   1.520       .  S
C135        C140   1.519       .  S
C135        C142   1.519       .  S
C137        C140   1.368       .  D
C137        C228   1.465       .  S
C138        C141   1.368       .  D
C138        C220   1.467       .  S
C139        C142   1.368       .  D
C139        C224   1.465       .  S
C140        C306   1.440       .  S
C141        C299   1.439       .  S
C142        C298   1.440       .  S
C143        H144   1.110       .  S
C143        C148   1.564       .  S
C143        C797   1.565       .  S
C143        C471   1.565   1_545  S
C145        H146   1.113       .  S
C145        C151   1.520       .  S
C145        C474   1.519   1_545  S
C145        C800   1.519       .  S
C147        C467   1.565       .  S
C147        C150   1.368       .  D
C147        C221   1.465       .  S
C148        C151   1.368       .  D
C148        C217   1.467       .  S
C149        C791   1.565   1_455  S
C149        C152   1.368       .  D
C149        C225   1.465       .  S
C150        C469   1.519       .  S
C150        C205   1.440       .  S
C151        C212   1.439       .  S
C152        C793   1.519   1_455  S
C152        C216   1.440       .  S
Zn153       O157   1.958       .  S
Zn153       O158   2.026       .  S
Zn153       O162   2.006       .  S
Zn153       O169   2.007       .  S
Zn154       O157   1.942       .  S
Zn154       O159   1.978       .  S
Zn154       O161   1.979       .  S
Zn154       O165   1.978       .  S
Zn155       O157   1.958       .  S
Zn155       O160   2.007       .  S
Zn155       O163   2.022       .  S
Zn155       O166   2.008       .  S
Zn156       O157   1.958       .  S
Zn156       O164   2.007       .  S
Zn156       O167   2.024       .  S
Zn156       O168   2.007       .  S
O158        C170   1.273       .  A
O159        C171   1.266       .  A
O160        C172   1.271       .  A
O161        C170   1.266       .  A
O162        C172   1.270       .  A
O163        C171   1.273       .  A
O164        C173   1.270       .  A
O165        C174   1.266       .  A
O166        C173   1.271       .  A
O167        C174   1.273       .  A
O168        C175   1.271       .  A
O169        C175   1.271       .  A
C170        C203   1.427       .  S
C171        C200   1.426       .  S
C172        C267   1.429       .  S
C173        C262   1.430       .  S
C174        C201   1.426       .  S
C175        C263   1.429       .  S
Zn176       O180   1.957       .  S
Zn176       O181   2.022       .  S
Zn176       O185   2.005       .  S
Zn176       O192   2.007       .  S
Zn177       O180   1.942       .  S
Zn177       O182   1.980       .  S
Zn177       O184   1.976       .  S
Zn177       O188   1.978       .  S
Zn178       O180   1.957       .  S
Zn178       O183   2.008       .  S
Zn178       O186   2.025       .  S
Zn178       O189   2.005       .  S
Zn179       O180   1.957       .  S
Zn179       O187   2.005       .  S
Zn179       O190   2.023       .  S
Zn179       O191   2.008       .  S
O181        C193   1.273       .  A
O182        C194   1.266       .  A
O183        C195   1.271       .  A
O184        C193   1.266       .  A
O185        C195   1.270       .  A
O186        C194   1.273       .  A
O187        C196   1.270       .  A
O188        C197   1.266       .  A
O189        C196   1.270       .  A
O190        C197   1.273       .  A
O191        C198   1.271       .  A
O192        C198   1.270       .  A
C193        C199   1.425       .  S
C194        C204   1.427       .  S
C195        C208   1.429       .  S
C196        C209   1.428       .  S
C197        C202   1.426       .  S
C198        C213   1.430       .  S
C199        C200   1.200   1_554  T
C201        C526   1.201   1_556  T
C202        C525   1.201   1_544  T
C203        C852   1.201   1_456  T
C204        C851   1.201   1_554  T
C205        C206   1.202       .  T
C206        C207   1.406       .  S
C207        C208   1.202       .  T
C209        C210   1.202       .  T
C210        C211   1.405       .  S
C211        C212   1.201       .  T
C213        C214   1.203       .  T
C214        C215   1.407       .  S
C215        C216   1.202       .  T
C217        C218   1.220       .  T
C218        C219   1.435       .  S
C219        C220   1.220       .  T
C221        C222   1.219       .  T
C222        C223   1.434       .  S
C223        C224   1.219       .  T
C225        C226   1.219       .  T
C226        C227   1.433       .  S
C227        C228   1.219       .  T
C229        C230   1.205       .  T
C231        C232   1.204       .  T
C233        C234   1.203       .  T
C235        C560   1.201   1_545  T
C236        C559   1.201       .  T
C236        C237   1.405       .  S
C237        C238   1.201       .  T
C239        C240   1.200       .  T
C240        C241   1.404       .  S
C241        C890   1.201   1_455  T
C242        C889   1.201       .  T
C243        C244   1.202       .  T
C244        C245   1.406       .  S
C245        C246   1.202       .  T
C247        C248   1.219       .  T
C248        C573   1.434   1_545  S
C249        C250   1.219       .  T
C249        C572   1.434       .  S
C251        C252   1.220       .  T
C252        C901   1.435   1_455  S
C253        C254   1.220       .  T
C253        C900   1.435       .  S
C255        C256   1.219       .  T
C256        C257   1.433       .  S
C257        C258   1.219       .  T
C259        C260   1.202       .  T
C260        C261   1.407       .  S
C261        C262   1.203       .  T
C263        C264   1.202       .  T
C264        C265   1.406       .  S
C265        C266   1.202       .  T
C267        C268   1.202       .  T
C268        C269   1.406       .  S
C269        C270   1.202       .  T
C271        C272   1.201       .  T
C272        C273   1.405       .  S
C273        C274   1.201       .  T
C275        C276   1.202       .  T
C276        C277   1.406       .  S
C277        C278   1.202       .  T
C279        C280   1.201       .  T
C280        C281   1.405       .  S
C281        C282   1.201       .  T
C283        C284   1.219       .  T
C284        C285   1.434       .  S
C285        C286   1.219       .  T
C287        C288   1.219       .  T
C288        C289   1.434       .  S
C289        C290   1.219       .  T
C291        C292   1.219       .  T
C292        C293   1.434       .  S
C293        C294   1.219       .  T
C295        C296   1.202       .  T
C296        C297   1.406       .  S
C297        C298   1.202       .  T
C299        C300   1.201       .  T
C300        C301   1.405       .  S
C301        C302   1.202       .  T
C303        C304   1.203       .  T
C304        C305   1.407       .  S
C305        C306   1.202       .  T
C307        C308   1.200       .  T
C309        C310   1.201       .  T
C311        C312   1.201       .  T
C313        C314   1.202       .  T
C314        C315   1.406       .  S
C315        C640   1.202   1_545  T
C316        C639   1.202       .  T
C317        C966   1.202   1_455  T
C318        C965   1.202       .  T
C318        C319   1.406       .  S
C319        C320   1.202       .  T
C321        C322   1.202       .  T
C322        C323   1.407       .  S
C323        C324   1.203       .  T
Zn325       O329   1.957       .  S
Zn325       O330   2.024       .  S
Zn325       O334   2.007       .  S
Zn325       O341   2.006       .  S
Zn326       O329   1.942       .  S
Zn326       O331   1.979       .  S
Zn326       O333   1.978       .  S
Zn326       O337   1.978       .  S
Zn327       O329   1.957       .  S
Zn327       O332   2.008       .  S
Zn327       O335   2.025       .  S
Zn327       O338   2.006       .  S
Zn328       O329   1.958       .  S
Zn328       O336   2.006       .  S
Zn328       O339   2.023       .  S
Zn328       O340   2.007       .  S
O330        C342   1.273       .  A
O331        C343   1.266       .  A
O332        C344   1.271       .  A
O333        C342   1.266       .  A
O334        C344   1.271       .  A
O335        C343   1.273       .  A
O336        C345   1.270       .  A
O337        C346   1.266       .  A
O338        C345   1.270       .  A
O339        C346   1.273       .  A
O340        C347   1.271       .  A
O341        C347   1.270       .  A
C342        C636   1.426       .  S
C343        C633   1.427       .  S
C344        C648   1.430       .  S
C345        C641   1.429       .  S
C346        C631   1.426       .  S
C347        C640   1.429       .  S
Zn348      O1000   1.957   1_465  S
Zn348      O1001   2.006   1_455  S
Zn348       O357   2.022       .  S
Zn349       O352   1.957   1_565  S
Zn349       O354   2.023       .  S
Zn349       O356   2.008       .  S
Zn350       O352   1.942       .  S
Zn350      O1003   1.977   1_545  S
Zn350       O358   1.979   1_545  S
Zn350       O685   1.979       .  S
Zn351       O676   1.957   1_455  S
Zn351       O359   2.024       .  S
Zn351      O1010   2.005   1_455  S
Zn351       O363   2.008       .  S
O352       Zn996   1.957   1_545  S
O352       Zn675   1.957       .  S
O353       Zn996   2.006       .  S
O353        C365   1.270       .  A
O354        C366   1.273       .  A
O355       Zn998   1.977   1_465  S
O355        C367   1.266       .  A
O356        C365   1.271       .  A
O357        C367   1.273       .  A
O358        C366   1.266       .  A
O359        C368   1.273       .  A
O360        C369   1.270       .  A
O361       Zn674   1.979   1_455  S
O361        C368   1.266       .  A
O362       Zn999   2.005       .  S
O362        C369   1.270       .  A
O363        C370   1.271       .  A
O364        C370   1.270       .  A
C365        C619   1.429       .  S
C366        C635   1.426       .  S
C367        C632   1.426       .  S
C368        C634   1.427       .  S
C369        C626   1.428       .  S
C370        C627   1.430       .  S
C371        H372   1.110       .  S
C371        C377   1.566       .  S
C371        C376   1.566       .  S
C371        C375   1.566       .  S
C373        H374   1.114       .  S
C373        C379   1.516       .  S
C373        C378   1.516       .  S
C373        C380   1.516       .  S
C375        C378   1.368       .  D
C375        C610   1.465       .  S
C376        C379   1.368       .  D
C376        C614   1.466       .  S
C377        C380   1.367       .  D
C377        C615   1.466       .  S
C378        C599   1.439       .  S
C379        C595   1.437       .  S
C380        C606   1.437       .  S
C381        H382   1.110       .  S
C381       C1035   1.565   1_545  S
C381        C386   1.565   1_545  S
C381        C709   1.565       .  S
C383        H384   1.113       .  S
C383       C1036   1.519       .  S
C383        C714   1.519       .  S
C385        C705   1.565       .  S
C385        C388   1.368       .  D
C385        C618   1.466       .  S
C386        C389   1.368       .  D
C386        C611   1.466       .  S
C387       C1029   1.565   1_565  S
C387        C390   1.367       .  D
C387        C607   1.465       .  S
C388       C1031   1.519       .  S
C388        C594   1.439       .  S
C389        C583   1.440       .  S
C390        C707   1.519   1_565  S
C390        C590   1.440       .  S
C391        H392   1.114       .  S
C391        C397   1.516       .  S
C391        C396   1.516       .  S
C391        C395   1.516       .  S
C393        H394   1.110       .  S
C393        C399   1.566       .  S
C393        C398   1.566       .  S
C393        C400   1.565       .  S
C395        C398   1.368       .  D
C395        C562   1.437       .  S
C396        C399   1.368       .  D
C396        C570   1.439       .  S
C397        C400   1.367       .  D
C397        C563   1.437       .  S
C398        C574   1.466       .  S
C399        C579   1.465       .  S
C400        C575   1.466       .  S
C401        H402   1.113       .  S
C401        C407   1.519       .  S
C401        C406   1.519       .  S
C401        C405   1.519       .  S
C403        H404   1.110       .  S
C403        C409   1.565       .  S
C403        C408   1.565       .  S
C403        C410   1.565       .  S
C405        C408   1.368       .  D
C405        C645   1.440       .  S
C406        C409   1.368       .  D
C406        C637   1.440       .  S
C407        C410   1.368       .  D
C407        C644   1.439       .  S
C408        C582   1.465       .  S
C409        C571   1.466       .  S
C410        C578   1.466       .  S
Zn411       O415   1.963       .  S
Zn411       O416   2.031       .  S
Zn411       O420   2.010       .  S
Zn411       O427   2.015       .  S
Zn412       O415   1.935       .  S
Zn412       O417   1.974       .  S
Zn412       O419   1.972       .  S
Zn412       O423   1.971       .  S
Zn413       O415   1.963       .  S
Zn413       O418   2.011       .  S
Zn413       O421   2.034       .  S
Zn413       O424   2.013       .  S
Zn414       O415   1.963       .  S
Zn414       O422   2.011       .  S
Zn414       O425   2.029       .  S
Zn414       O426   2.014       .  S
O416        C428   1.273       .  A
O417        C429   1.266       .  A
O418        C430   1.272       .  A
O419        C428   1.265       .  A
O420        C430   1.272       .  A
O421        C429   1.273       .  A
O422        C431   1.271       .  A
O423        C432   1.265       .  A
O424        C431   1.272       .  A
O425        C432   1.273       .  A
O426        C433   1.272       .  A
O427        C433   1.272       .  A
C428        C559   1.427       .  S
C429        C567   1.429       .  S
C430        C558   1.430       .  S
C431        C555   1.431       .  S
C432        C566   1.426       .  S
C433        C553   1.433       .  S
Zn434       O438   1.935       .  S
Zn434       O439   1.972   1_655  S
Zn434       O774   1.971       .  S
Zn435       O438   1.963   1_455  S
Zn435       O440   2.010       .  S
Zn435       O442   2.031       .  S
Zn435      O1094   2.014   1_455  S
Zn436       O441   2.034       .  S
Zn436      O1095   2.013   1_455  S
Zn437       O762   1.963   1_565  S
Zn437       O445   2.011       .  S
Zn437       O449   2.030       .  S
O438       Zn761   1.963       .  S
O439        C451   1.265       .  A
O440        C452   1.271       .  A
O441        C453   1.273       .  A
O442        C451   1.273       .  A
O443        C453   1.266       .  A
O444        C452   1.272       .  A
O445        C454   1.272       .  A
O446      Zn1083   2.014       .  S
O446        C455   1.272       .  A
O447      Zn1084   2.013       .  S
O447        C454   1.272       .  A
O448        C455   1.272       .  A
O449        C456   1.273       .  A
O450       Zn758   1.971   1_565  S
O450        C456   1.265       .  A
C451        C603   1.427       .  S
C452        C557   1.430       .  S
C453        C602   1.428       .  S
C454        C556   1.431       .  S
C455        C554   1.433       .  S
C456        C598   1.427       .  S
C457        H458   1.110       .  S
C457        C463   1.565       .  S
C457        C462   1.564       .  S
C457        C461   1.565       .  S
C459        H460   1.113       .  S
C459        C465   1.520       .  S
C459        C464   1.519       .  S
C459        C466   1.519       .  S
C461        C464   1.368       .  D
C461        C552   1.465       .  S
C462        C465   1.368       .  D
C462        C544   1.467       .  S
C463        C466   1.368       .  D
C463        C548   1.465       .  S
C464        C630   1.440       .  S
C465        C623   1.439       .  S
C466        C622   1.440       .  S
C467        H468   1.110       .  S
C467       C1121   1.565       .  S
C467        C472   1.564       .  S
C469        H470   1.113       .  S
C469        C475   1.520       .  S
C469       C1124   1.519       .  S
C471        C474   1.368       .  D
C471        C545   1.465       .  S
C472        C475   1.368       .  D
C472        C541   1.467       .  S
C473       C1115   1.565   1_455  S
C473        C476   1.368       .  D
C473        C549   1.465       .  S
C474        C529   1.440       .  S
C475        C536   1.439       .  S
C476       C1117   1.519   1_455  S
C476        C540   1.440       .  S
Zn477       O481   1.958       .  S
Zn477       O482   2.026       .  S
Zn477       O486   2.006       .  S
Zn477       O493   2.007       .  S
Zn478       O481   1.942       .  S
Zn478       O483   1.978       .  S
Zn478       O485   1.979       .  S
Zn478       O489   1.978       .  S
Zn479       O481   1.958       .  S
Zn479       O484   2.007       .  S
Zn479       O487   2.022       .  S
Zn479       O490   2.008       .  S
Zn480       O481   1.958       .  S
Zn480       O488   2.007       .  S
Zn480       O491   2.024       .  S
Zn480       O492   2.007       .  S
O482        C494   1.273       .  A
O483        C495   1.266       .  A
O484        C496   1.271       .  A
O485        C494   1.266       .  A
O486        C496   1.270       .  A
O487        C495   1.273       .  A
O488        C497   1.270       .  A
O489        C498   1.266       .  A
O490        C497   1.271       .  A
O491        C498   1.273       .  A
O492        C499   1.271       .  A
O493        C499   1.271       .  A
C494        C527   1.427       .  S
C495        C524   1.426       .  S
C496        C591   1.429       .  S
C497        C586   1.430       .  S
C498        C525   1.426       .  S
C499        C587   1.429       .  S
Zn500       O504   1.957       .  S
Zn500       O505   2.022       .  S
Zn500       O509   2.005       .  S
Zn500       O516   2.007       .  S
Zn501       O504   1.942       .  S
Zn501       O506   1.980       .  S
Zn501       O508   1.976       .  S
Zn501       O512   1.978       .  S
Zn502       O504   1.957       .  S
Zn502       O507   2.008       .  S
Zn502       O510   2.025       .  S
Zn502       O513   2.005       .  S
Zn503       O504   1.957       .  S
Zn503       O511   2.005       .  S
Zn503       O514   2.023       .  S
Zn503       O515   2.008       .  S
O505        C517   1.273       .  A
O506        C518   1.266       .  A
O507        C519   1.271       .  A
O508        C517   1.266       .  A
O509        C519   1.270       .  A
O510        C518   1.273       .  A
O511        C520   1.270       .  A
O512        C521   1.266       .  A
O513        C520   1.270       .  A
O514        C521   1.273       .  A
O515        C522   1.271       .  A
O516        C522   1.270       .  A
C517        C523   1.425       .  S
C518        C528   1.427       .  S
C519        C532   1.429       .  S
C520        C533   1.428       .  S
C521        C526   1.426       .  S
C522        C537   1.430       .  S
C523        C524   1.200   1_554  T
C527       C1176   1.201   1_456  T
C528       C1175   1.201   1_554  T
C529        C530   1.202       .  T
C530        C531   1.406       .  S
C531        C532   1.202       .  T
C533        C534   1.202       .  T
C534        C535   1.405       .  S
C535        C536   1.201       .  T
C537        C538   1.203       .  T
C538        C539   1.407       .  S
C539        C540   1.202       .  T
C541        C542   1.220       .  T
C542        C543   1.435       .  S
C543        C544   1.220       .  T
C545        C546   1.219       .  T
C546        C547   1.434       .  S
C547        C548   1.219       .  T
C549        C550   1.219       .  T
C550        C551   1.433       .  S
C551        C552   1.219       .  T
C553        C554   1.205       .  T
C555        C556   1.204       .  T
C557        C558   1.203       .  T
C560        C561   1.405       .  S
C561        C562   1.201       .  T
C563        C564   1.200       .  T
C564        C565   1.404       .  S
C565       C1214   1.201   1_455  T
C566       C1213   1.201       .  T
C567        C568   1.202       .  T
C568        C569   1.406       .  S
C569        C570   1.202       .  T
C571        C572   1.219       .  T
C573        C574   1.219       .  T
C575        C576   1.220       .  T
C576       C1225   1.435   1_455  S
C577        C578   1.220       .  T
C577       C1224   1.435       .  S
C579        C580   1.219       .  T
C580        C581   1.433       .  S
C581        C582   1.219       .  T
C583        C584   1.202       .  T
C584        C585   1.407       .  S
C585        C586   1.203       .  T
C587        C588   1.202       .  T
C588        C589   1.406       .  S
C589        C590   1.202       .  T
C591        C592   1.202       .  T
C592        C593   1.406       .  S
C593        C594   1.202       .  T
C595        C596   1.201       .  T
C596        C597   1.405       .  S
C597        C598   1.201       .  T
C599        C600   1.202       .  T
C600        C601   1.406       .  S
C601        C602   1.202       .  T
C603        C604   1.201       .  T
C604        C605   1.405       .  S
C605        C606   1.201       .  T
C607        C608   1.219       .  T
C608        C609   1.434       .  S
C609        C610   1.219       .  T
C611        C612   1.219       .  T
C612        C613   1.434       .  S
C613        C614   1.219       .  T
C615        C616   1.219       .  T
C616        C617   1.434       .  S
C617        C618   1.219       .  T
C619        C620   1.202       .  T
C620        C621   1.406       .  S
C621        C622   1.202       .  T
C623        C624   1.201       .  T
C624        C625   1.405       .  S
C625        C626   1.202       .  T
C627        C628   1.203       .  T
C628        C629   1.407       .  S
C629        C630   1.202       .  T
C631        C632   1.200       .  T
C633        C634   1.201       .  T
C635        C636   1.201       .  T
C637        C638   1.202       .  T
C638        C639   1.406       .  S
C641       C1290   1.202   1_455  T
C642       C1289   1.202       .  T
C642        C643   1.406       .  S
C643        C644   1.202       .  T
C645        C646   1.202       .  T
C646        C647   1.407       .  S
C647        C648   1.203       .  T
Zn649       O653   1.957       .  S
Zn649       O654   2.024       .  S
Zn649       O658   2.007       .  S
Zn649       O665   2.006       .  S
Zn650       O653   1.942       .  S
Zn650       O655   1.979       .  S
Zn650       O657   1.978       .  S
Zn650       O661   1.978       .  S
Zn651       O653   1.957       .  S
Zn651       O656   2.008       .  S
Zn651       O659   2.025       .  S
Zn651       O662   2.006       .  S
Zn652       O653   1.958       .  S
Zn652       O660   2.006       .  S
Zn652       O663   2.023       .  S
Zn652       O664   2.007       .  S
O654        C666   1.273       .  A
O655        C667   1.266       .  A
O656        C668   1.271       .  A
O657        C666   1.266       .  A
O658        C668   1.271       .  A
O659        C667   1.273       .  A
O660        C669   1.270       .  A
O661        C670   1.266       .  A
O662        C669   1.270       .  A
O663        C670   1.273       .  A
O664        C671   1.271       .  A
O665        C671   1.270       .  A
C666        C960   1.426       .  S
C667        C957   1.427       .  S
C668        C972   1.430       .  S
C669        C965   1.429       .  S
C670        C955   1.426       .  S
C671        C964   1.429       .  S
Zn672       O681   2.022       .  S
Zn672      O1012   2.006       .  S
Zn673       O676   1.957       .  S
Zn673       O678   2.023       .  S
Zn673       O680   2.008       .  S
Zn673      O1008   2.005       .  S
Zn674       O676   1.942       .  S
Zn674       O682   1.979       .  S
Zn675       O683   2.024       .  S
Zn675       O687   2.008       .  S
O677        C689   1.270       .  A
O678        C690   1.273       .  A
O679        C691   1.266       .  A
O680        C689   1.271       .  A
O681        C691   1.273       .  A
O682        C690   1.266       .  A
O683        C692   1.273       .  A
O684       Zn997   2.005   1_545  S
O684        C693   1.270       .  A
O685        C692   1.266       .  A
O686        C693   1.270       .  A
O687        C694   1.271       .  A
O688       Zn996   2.006   1_545  S
O688        C694   1.270       .  A
C689        C943   1.429       .  S
C690        C959   1.426       .  S
C691        C956   1.426       .  S
C692        C958   1.427       .  S
C693        C950   1.428       .  S
C694        C951   1.430       .  S
C695        H696   1.110       .  S
C695        C701   1.566       .  S
C695        C700   1.566       .  S
C695        C699   1.566       .  S
C697        H698   1.114       .  S
C697        C703   1.516       .  S
C697        C702   1.516       .  S
C697        C704   1.516       .  S
C699        C702   1.368       .  D
C699        C934   1.465       .  S
C700        C703   1.368       .  D
C700        C938   1.466       .  S
C701        C704   1.367       .  D
C701        C939   1.466       .  S
C702        C923   1.439       .  S
C703        C919   1.437       .  S
C704        C930   1.437       .  S
C705        H706   1.110   1_455  S
C705        C710   1.565   1_455  S
C707        H708   1.113       .  S
C707       C1037   1.520   1_445  S
C709        C712   1.368       .  D
C709        C942   1.466       .  S
C710        C713   1.368       .  D
C710        C935   1.466       .  S
C711        C714   1.367       .  D
C711        C931   1.465       .  S
C712        C918   1.439       .  S
C713       C1031   1.520   1_655  S
C713        C907   1.440       .  S
C714        C914   1.440       .  S
C715        H716   1.114       .  S
C715        C721   1.516       .  S
C715        C720   1.516       .  S
C715        C719   1.516       .  S
C717        H718   1.110       .  S
C717        C723   1.566       .  S
C717        C722   1.566       .  S
C717        C724   1.565       .  S
C719        C722   1.368       .  D
C719        C886   1.437       .  S
C720        C723   1.368       .  D
C720        C894   1.439       .  S
C721        C724   1.367       .  D
C721        C887   1.437       .  S
C722        C898   1.466       .  S
C723        C903   1.465       .  S
C724        C899   1.466       .  S
C725        H726   1.113       .  S
C725        C731   1.519       .  S
C725        C730   1.519       .  S
C725        C729   1.519       .  S
C727        H728   1.110       .  S
C727        C733   1.565       .  S
C727        C732   1.565       .  S
C727        C734   1.565       .  S
C729        C732   1.368       .  D
C729        C969   1.440       .  S
C730        C733   1.368       .  D
C730        C961   1.440       .  S
C731        C734   1.368       .  D
C731        C968   1.439       .  S
C732        C906   1.465       .  S
C733        C895   1.466       .  S
C734        C902   1.466       .  S
Zn735       O739   1.963       .  S
Zn735       O740   2.031       .  S
Zn735       O744   2.010       .  S
Zn735       O751   2.015       .  S
Zn736       O739   1.935       .  S
Zn736       O741   1.974       .  S
Zn736       O743   1.972       .  S
Zn736       O747   1.971       .  S
Zn737       O739   1.963       .  S
Zn737       O742   2.011       .  S
Zn737       O745   2.034       .  S
Zn737       O748   2.013       .  S
Zn738       O739   1.963       .  S
Zn738       O746   2.011       .  S
Zn738       O749   2.029       .  S
Zn738       O750   2.014       .  S
O740        C752   1.273       .  A
O741        C753   1.266       .  A
O742        C754   1.272       .  A
O743        C752   1.265       .  A
O744        C754   1.272       .  A
O745        C753   1.273       .  A
O746        C755   1.271       .  A
O747        C756   1.265       .  A
O748        C755   1.272       .  A
O749        C756   1.273       .  A
O750        C757   1.272       .  A
O751        C757   1.272       .  A
C752        C883   1.427       .  S
C753        C891   1.429       .  S
C754        C882   1.430       .  S
C755        C879   1.431       .  S
C756        C890   1.426       .  S
C757        C877   1.433       .  S
Zn758       O762   1.935       .  S
Zn758       O763   1.972       .  S
Zn758      O1091   1.974   1_545  S
Zn759       O762   1.963       .  S
Zn759       O764   2.010       .  S
Zn759       O766   2.031       .  S
Zn760      O1086   1.963       .  S
Zn760       O765   2.034       .  S
Zn760      O1092   2.011       .  S
Zn761       O769   2.011       .  S
Zn761      O1096   2.014       .  S
Zn761       O773   2.030       .  S
O762      Zn1084   1.963   1_545  S
O763        C775   1.265       .  A
O764        C776   1.271       .  A
O765        C777   1.273       .  A
O766        C775   1.273       .  A
O767      Zn1082   1.974       .  S
O767        C777   1.266       .  A
O768      Zn1084   2.011   1_545  S
O768        C776   1.272       .  A
O769        C778   1.272       .  A
O770        C779   1.272       .  A
O771        C778   1.272       .  A
O772      Zn1085   2.014   1_545  S
O772        C779   1.272       .  A
O773        C780   1.273       .  A
O774        C780   1.265       .  A
C775        C927   1.427       .  S
C776        C881   1.430       .  S
C777        C926   1.428       .  S
C778        C880   1.431       .  S
C779        C878   1.433       .  S
C780        C922   1.427       .  S
C781        H782   1.110       .  S
C781        C787   1.565       .  S
C781        C786   1.564       .  S
C781        C785   1.565       .  S
C783        H784   1.113       .  S
C783        C789   1.520       .  S
C783        C788   1.519       .  S
C783        C790   1.519       .  S
C785        C788   1.368       .  D
C785        C876   1.465       .  S
C786        C789   1.368       .  D
C786        C868   1.467       .  S
C787        C790   1.368       .  D
C787        C872   1.465       .  S
C788        C954   1.440       .  S
C789        C947   1.439       .  S
C790        C946   1.440       .  S
C791        H792   1.110       .  S
C791        C796   1.564       .  S
C791       C1119   1.565   1_545  S
C793        H794   1.113       .  S
C793        C799   1.520       .  S
C793       C1122   1.519   1_545  S
C795       C1115   1.565       .  S
C795        C798   1.368       .  D
C795        C869   1.465       .  S
C796        C799   1.368       .  D
C796        C865   1.467       .  S
C797        C800   1.368       .  D
C797        C873   1.465       .  S
C798       C1117   1.519       .  S
C798        C853   1.440       .  S
C799        C860   1.439       .  S
C800        C864   1.440       .  S
Zn801       O805   1.958       .  S
Zn801       O806   2.026       .  S
Zn801       O810   2.006       .  S
Zn801       O817   2.007       .  S
Zn802       O805   1.942       .  S
Zn802       O807   1.978       .  S
Zn802       O809   1.979       .  S
Zn802       O813   1.978       .  S
Zn803       O805   1.958       .  S
Zn803       O808   2.007       .  S
Zn803       O811   2.022       .  S
Zn803       O814   2.008       .  S
Zn804       O805   1.958       .  S
Zn804       O812   2.007       .  S
Zn804       O815   2.024       .  S
Zn804       O816   2.007       .  S
O806        C818   1.273       .  A
O807        C819   1.266       .  A
O808        C820   1.271       .  A
O809        C818   1.266       .  A
O810        C820   1.270       .  A
O811        C819   1.273       .  A
O812        C821   1.270       .  A
O813        C822   1.266       .  A
O814        C821   1.271       .  A
O815        C822   1.273       .  A
O816        C823   1.271       .  A
O817        C823   1.271       .  A
C818        C851   1.427       .  S
C819        C848   1.426       .  S
C820        C915   1.429       .  S
C821        C910   1.430       .  S
C822        C849   1.426       .  S
C823        C911   1.429       .  S
Zn824       O828   1.957       .  S
Zn824       O829   2.022       .  S
Zn824       O833   2.005       .  S
Zn824       O840   2.007       .  S
Zn825       O828   1.942       .  S
Zn825       O830   1.980       .  S
Zn825       O832   1.976       .  S
Zn825       O836   1.978       .  S
Zn826       O828   1.957       .  S
Zn826       O831   2.008       .  S
Zn826       O834   2.025       .  S
Zn826       O837   2.005       .  S
Zn827       O828   1.957       .  S
Zn827       O835   2.005       .  S
Zn827       O838   2.023       .  S
Zn827       O839   2.008       .  S
O829        C841   1.273       .  A
O830        C842   1.266       .  A
O831        C843   1.271       .  A
O832        C841   1.266       .  A
O833        C843   1.270       .  A
O834        C842   1.273       .  A
O835        C844   1.270       .  A
O836        C845   1.266       .  A
O837        C844   1.270       .  A
O838        C845   1.273       .  A
O839        C846   1.271       .  A
O840        C846   1.270       .  A
C841        C847   1.425       .  S
C842        C852   1.427       .  S
C843        C856   1.429       .  S
C844        C857   1.428       .  S
C845        C850   1.426       .  S
C846        C861   1.430       .  S
C847        C848   1.200   1_554  T
C849       C1174   1.201   1_556  T
C850       C1173   1.201   1_544  T
C853        C854   1.202       .  T
C854        C855   1.406       .  S
C855        C856   1.202       .  T
C857        C858   1.202       .  T
C858        C859   1.405       .  S
C859        C860   1.201       .  T
C861        C862   1.203       .  T
C862        C863   1.407       .  S
C863        C864   1.202       .  T
C865        C866   1.220       .  T
C866        C867   1.435       .  S
C867        C868   1.220       .  T
C869        C870   1.219       .  T
C870        C871   1.434       .  S
C871        C872   1.219       .  T
C873        C874   1.219       .  T
C874        C875   1.433       .  S
C875        C876   1.219       .  T
C877        C878   1.205       .  T
C879        C880   1.204       .  T
C881        C882   1.203       .  T
C883       C1208   1.201   1_545  T
C884       C1207   1.201       .  T
C884        C885   1.405       .  S
C885        C886   1.201       .  T
C887        C888   1.200       .  T
C888        C889   1.404       .  S
C891        C892   1.202       .  T
C892        C893   1.406       .  S
C893        C894   1.202       .  T
C895        C896   1.219       .  T
C896       C1221   1.434   1_545  S
C897        C898   1.219       .  T
C897       C1220   1.434       .  S
C899        C900   1.220       .  T
C901        C902   1.220       .  T
C903        C904   1.219       .  T
C904        C905   1.433       .  S
C905        C906   1.219       .  T
C907        C908   1.202       .  T
C908        C909   1.407       .  S
C909        C910   1.203       .  T
C911        C912   1.202       .  T
C912        C913   1.406       .  S
C913        C914   1.202       .  T
C915        C916   1.202       .  T
C916        C917   1.406       .  S
C917        C918   1.202       .  T
C919        C920   1.201       .  T
C920        C921   1.405       .  S
C921        C922   1.201       .  T
C923        C924   1.202       .  T
C924        C925   1.406       .  S
C925        C926   1.202       .  T
C927        C928   1.201       .  T
C928        C929   1.405       .  S
C929        C930   1.201       .  T
C931        C932   1.219       .  T
C932        C933   1.434       .  S
C933        C934   1.219       .  T
C935        C936   1.219       .  T
C936        C937   1.434       .  S
C937        C938   1.219       .  T
C939        C940   1.219       .  T
C940        C941   1.434       .  S
C941        C942   1.219       .  T
C943        C944   1.202       .  T
C944        C945   1.406       .  S
C945        C946   1.202       .  T
C947        C948   1.201       .  T
C948        C949   1.405       .  S
C949        C950   1.202       .  T
C951        C952   1.203       .  T
C952        C953   1.407       .  S
C953        C954   1.202       .  T
C955        C956   1.200       .  T
C957        C958   1.201       .  T
C959        C960   1.201       .  T
C961        C962   1.202       .  T
C962        C963   1.406       .  S
C963       C1288   1.202   1_545  T
C964       C1287   1.202       .  T
C966        C967   1.406       .  S
C967        C968   1.202       .  T
C969        C970   1.202       .  T
C970        C971   1.407       .  S
C971        C972   1.203       .  T
Zn973       O977   1.957       .  S
Zn973       O978   2.024       .  S
Zn973       O982   2.007       .  S
Zn973       O989   2.006       .  S
Zn974       O977   1.942       .  S
Zn974       O979   1.979       .  S
Zn974       O981   1.978       .  S
Zn974       O985   1.978       .  S
Zn975       O977   1.957       .  S
Zn975       O980   2.008       .  S
Zn975       O983   2.025       .  S
Zn975       O986   2.006       .  S
Zn976       O977   1.958       .  S
Zn976       O984   2.006       .  S
Zn976       O987   2.023       .  S
Zn976       O988   2.007       .  S
O978        C990   1.273       .  A
O979        C991   1.266       .  A
O980        C992   1.271       .  A
O981        C990   1.266       .  A
O982        C992   1.271       .  A
O983        C991   1.273       .  A
O984        C993   1.270       .  A
O985        C994   1.266       .  A
O986        C993   1.270       .  A
O987        C994   1.273       .  A
O988        C995   1.271       .  A
O989        C995   1.270       .  A
C990       C1284   1.426       .  S
C991       C1281   1.427       .  S
C992       C1296   1.430       .  S
C993       C1289   1.429       .  S
C994       C1279   1.426       .  S
C995       C1288   1.429       .  S
Zn996      O1005   2.022       .  S
Zn997      O1000   1.957   1_565  S
Zn997      O1002   2.023       .  S
Zn997      O1004   2.008       .  S
Zn998      O1000   1.942       .  S
Zn998      O1006   1.979   1_545  S
Zn999      O1007   2.024       .  S
Zn999      O1011   2.008       .  S
O1001      C1013   1.270       .  A
O1002      C1014   1.273       .  A
O1003      C1015   1.266       .  A
O1004      C1013   1.271       .  A
O1005      C1015   1.273       .  A
O1006      C1014   1.266       .  A
O1007      C1016   1.273       .  A
O1008      C1017   1.270       .  A
O1009      C1016   1.266       .  A
O1010      C1017   1.270       .  A
O1011      C1018   1.271       .  A
O1012      C1018   1.270       .  A
C1013      C1267   1.429       .  S
C1014      C1283   1.426       .  S
C1015      C1280   1.426       .  S
C1016      C1282   1.427       .  S
C1017      C1274   1.428       .  S
C1018      C1275   1.430       .  S
C1019      H1020   1.110       .  S
C1019      C1025   1.566       .  S
C1019      C1024   1.566       .  S
C1019      C1023   1.566       .  S
C1021      H1022   1.114       .  S
C1021      C1027   1.516       .  S
C1021      C1026   1.516       .  S
C1021      C1028   1.516       .  S
C1023      C1026   1.368       .  D
C1023      C1258   1.465       .  S
C1024      C1027   1.368       .  D
C1024      C1262   1.466       .  S
C1025      C1028   1.367       .  D
C1025      C1263   1.466       .  S
C1026      C1247   1.439       .  S
C1027      C1243   1.437       .  S
C1028      C1254   1.437       .  S
C1029      H1030   1.110   1_455  S
C1029      C1034   1.565   1_445  S
C1031      H1032   1.113       .  S
C1033      C1036   1.368       .  D
C1033      C1266   1.466       .  S
C1034      C1037   1.368       .  D
C1034      C1259   1.466       .  S
C1035      C1038   1.367       .  D
C1035      C1255   1.465       .  S
C1036      C1242   1.439       .  S
C1037      C1231   1.440       .  S
C1038      C1238   1.440       .  S
C1039      H1040   1.114       .  S
C1039      C1045   1.516       .  S
C1039      C1044   1.516       .  S
C1039      C1043   1.516       .  S
C1041      H1042   1.110       .  S
C1041      C1047   1.566       .  S
C1041      C1046   1.566       .  S
C1041      C1048   1.565       .  S
C1043      C1046   1.368       .  D
C1043      C1210   1.437       .  S
C1044      C1047   1.368       .  D
C1044      C1218   1.439       .  S
C1045      C1048   1.367       .  D
C1045      C1211   1.437       .  S
C1046      C1222   1.466       .  S
C1047      C1227   1.465       .  S
C1048      C1223   1.466       .  S
C1049      H1050   1.113       .  S
C1049      C1055   1.519       .  S
C1049      C1054   1.519       .  S
C1049      C1053   1.519       .  S
C1051      H1052   1.110       .  S
C1051      C1057   1.565       .  S
C1051      C1056   1.565       .  S
C1051      C1058   1.565       .  S
C1053      C1056   1.368       .  D
C1053      C1293   1.440       .  S
C1054      C1057   1.368       .  D
C1054      C1285   1.440       .  S
C1055      C1058   1.368       .  D
C1055      C1292   1.439       .  S
C1056      C1230   1.465       .  S
C1057      C1219   1.466       .  S
C1058      C1226   1.466       .  S
Zn1059     O1063   1.963       .  S
Zn1059     O1064   2.031       .  S
Zn1059     O1068   2.010       .  S
Zn1059     O1075   2.015       .  S
Zn1060     O1063   1.935       .  S
Zn1060     O1065   1.974       .  S
Zn1060     O1067   1.972       .  S
Zn1060     O1071   1.971       .  S
Zn1061     O1063   1.963       .  S
Zn1061     O1066   2.011       .  S
Zn1061     O1069   2.034       .  S
Zn1061     O1072   2.013       .  S
Zn1062     O1063   1.963       .  S
Zn1062     O1070   2.011       .  S
Zn1062     O1073   2.029       .  S
Zn1062     O1074   2.014       .  S
O1064      C1076   1.273       .  A
O1065      C1077   1.266       .  A
O1066      C1078   1.272       .  A
O1067      C1076   1.265       .  A
O1068      C1078   1.272       .  A
O1069      C1077   1.273       .  A
O1070      C1079   1.271       .  A
O1071      C1080   1.265       .  A
O1072      C1079   1.272       .  A
O1073      C1080   1.273       .  A
O1074      C1081   1.272       .  A
O1075      C1081   1.272       .  A
C1076      C1207   1.427       .  S
C1077      C1215   1.429       .  S
C1078      C1206   1.430       .  S
C1079      C1203   1.431       .  S
C1080      C1214   1.426       .  S
C1081      C1201   1.433       .  S
Zn1082     O1086   1.935       .  S
Zn1082     O1087   1.972       .  S
Zn1083     O1086   1.963       .  S
Zn1083     O1088   2.010       .  S
Zn1083     O1090   2.031       .  S
Zn1084     O1089   2.034       .  S
Zn1085     O1093   2.011       .  S
Zn1085     O1097   2.030       .  S
O1087      C1099   1.265       .  A
O1088      C1100   1.271       .  A
O1089      C1101   1.273       .  A
O1090      C1099   1.273       .  A
O1091      C1101   1.266       .  A
O1092      C1100   1.272       .  A
O1093      C1102   1.272       .  A
O1094      C1103   1.272       .  A
O1095      C1102   1.272       .  A
O1096      C1103   1.272       .  A
O1097      C1104   1.273       .  A
O1098      C1104   1.265       .  A
C1099      C1251   1.427       .  S
C1100      C1205   1.430       .  S
C1101      C1250   1.428       .  S
C1102      C1204   1.431       .  S
C1103      C1202   1.433       .  S
C1104      C1246   1.427       .  S
C1105      H1106   1.110       .  S
C1105      C1111   1.565       .  S
C1105      C1110   1.564       .  S
C1105      C1109   1.565       .  S
C1107      H1108   1.113       .  S
C1107      C1113   1.520       .  S
C1107      C1112   1.519       .  S
C1107      C1114   1.519       .  S
C1109      C1112   1.368       .  D
C1109      C1200   1.465       .  S
C1110      C1113   1.368       .  D
C1110      C1192   1.467       .  S
C1111      C1114   1.368       .  D
C1111      C1196   1.465       .  S
C1112      C1278   1.440       .  S
C1113      C1271   1.439       .  S
C1114      C1270   1.440       .  S
C1115      H1116   1.110       .  S
C1115      C1120   1.564       .  S
C1117      H1118   1.113       .  S
C1117      C1123   1.520       .  S
C1119      C1122   1.368       .  D
C1119      C1193   1.465       .  S
C1120      C1123   1.368       .  D
C1120      C1189   1.467       .  S
C1121      C1124   1.368       .  D
C1121      C1197   1.465       .  S
C1122      C1177   1.440       .  S
C1123      C1184   1.439       .  S
C1124      C1188   1.440       .  S
Zn1125     O1129   1.958       .  S
Zn1125     O1130   2.026       .  S
Zn1125     O1134   2.006       .  S
Zn1125     O1141   2.007       .  S
Zn1126     O1129   1.942       .  S
Zn1126     O1131   1.978       .  S
Zn1126     O1133   1.979       .  S
Zn1126     O1137   1.978       .  S
Zn1127     O1129   1.958       .  S
Zn1127     O1132   2.007       .  S
Zn1127     O1135   2.022       .  S
Zn1127     O1138   2.008       .  S
Zn1128     O1129   1.958       .  S
Zn1128     O1136   2.007       .  S
Zn1128     O1139   2.024       .  S
Zn1128     O1140   2.007       .  S
O1130      C1142   1.273       .  A
O1131      C1143   1.266       .  A
O1132      C1144   1.271       .  A
O1133      C1142   1.266       .  A
O1134      C1144   1.270       .  A
O1135      C1143   1.273       .  A
O1136      C1145   1.270       .  A
O1137      C1146   1.266       .  A
O1138      C1145   1.271       .  A
O1139      C1146   1.273       .  A
O1140      C1147   1.271       .  A
O1141      C1147   1.271       .  A
C1142      C1175   1.427       .  S
C1143      C1172   1.426       .  S
C1144      C1239   1.429       .  S
C1145      C1234   1.430       .  S
C1146      C1173   1.426       .  S
C1147      C1235   1.429       .  S
Zn1148     O1152   1.957       .  S
Zn1148     O1153   2.022       .  S
Zn1148     O1157   2.005       .  S
Zn1148     O1164   2.007       .  S
Zn1149     O1152   1.942       .  S
Zn1149     O1154   1.980       .  S
Zn1149     O1156   1.976       .  S
Zn1149     O1160   1.978       .  S
Zn1150     O1152   1.957       .  S
Zn1150     O1155   2.008       .  S
Zn1150     O1158   2.025       .  S
Zn1150     O1161   2.005       .  S
Zn1151     O1152   1.957       .  S
Zn1151     O1159   2.005       .  S
Zn1151     O1162   2.023       .  S
Zn1151     O1163   2.008       .  S
O1153      C1165   1.273       .  A
O1154      C1166   1.266       .  A
O1155      C1167   1.271       .  A
O1156      C1165   1.266       .  A
O1157      C1167   1.270       .  A
O1158      C1166   1.273       .  A
O1159      C1168   1.270       .  A
O1160      C1169   1.266       .  A
O1161      C1168   1.270       .  A
O1162      C1169   1.273       .  A
O1163      C1170   1.271       .  A
O1164      C1170   1.270       .  A
C1165      C1171   1.425       .  S
C1166      C1176   1.427       .  S
C1167      C1180   1.429       .  S
C1168      C1181   1.428       .  S
C1169      C1174   1.426       .  S
C1170      C1185   1.430       .  S
C1171      C1172   1.200   1_554  T
C1177      C1178   1.202       .  T
C1178      C1179   1.406       .  S
C1179      C1180   1.202       .  T
C1181      C1182   1.202       .  T
C1182      C1183   1.405       .  S
C1183      C1184   1.201       .  T
C1185      C1186   1.203       .  T
C1186      C1187   1.407       .  S
C1187      C1188   1.202       .  T
C1189      C1190   1.220       .  T
C1190      C1191   1.435       .  S
C1191      C1192   1.220       .  T
C1193      C1194   1.219       .  T
C1194      C1195   1.434       .  S
C1195      C1196   1.219       .  T
C1197      C1198   1.219       .  T
C1198      C1199   1.433       .  S
C1199      C1200   1.219       .  T
C1201      C1202   1.205       .  T
C1203      C1204   1.204       .  T
C1205      C1206   1.203       .  T
C1208      C1209   1.405       .  S
C1209      C1210   1.201       .  T
C1211      C1212   1.200       .  T
C1212      C1213   1.404       .  S
C1215      C1216   1.202       .  T
C1216      C1217   1.406       .  S
C1217      C1218   1.202       .  T
C1219      C1220   1.219       .  T
C1221      C1222   1.219       .  T
C1223      C1224   1.220       .  T
C1225      C1226   1.220       .  T
C1227      C1228   1.219       .  T
C1228      C1229   1.433       .  S
C1229      C1230   1.219       .  T
C1231      C1232   1.202       .  T
C1232      C1233   1.407       .  S
C1233      C1234   1.203       .  T
C1235      C1236   1.202       .  T
C1236      C1237   1.406       .  S
C1237      C1238   1.202       .  T
C1239      C1240   1.202       .  T
C1240      C1241   1.406       .  S
C1241      C1242   1.202       .  T
C1243      C1244   1.201       .  T
C1244      C1245   1.405       .  S
C1245      C1246   1.201       .  T
C1247      C1248   1.202       .  T
C1248      C1249   1.406       .  S
C1249      C1250   1.202       .  T
C1251      C1252   1.201       .  T
C1252      C1253   1.405       .  S
C1253      C1254   1.201       .  T
C1255      C1256   1.219       .  T
C1256      C1257   1.434       .  S
C1257      C1258   1.219       .  T
C1259      C1260   1.219       .  T
C1260      C1261   1.434       .  S
C1261      C1262   1.219       .  T
C1263      C1264   1.219       .  T
C1264      C1265   1.434       .  S
C1265      C1266   1.219       .  T
C1267      C1268   1.202       .  T
C1268      C1269   1.406       .  S
C1269      C1270   1.202       .  T
C1271      C1272   1.201       .  T
C1272      C1273   1.405       .  S
C1273      C1274   1.202       .  T
C1275      C1276   1.203       .  T
C1276      C1277   1.407       .  S
C1277      C1278   1.202       .  T
C1279      C1280   1.200       .  T
C1281      C1282   1.201       .  T
C1283      C1284   1.201       .  T
C1285      C1286   1.202       .  T
C1286      C1287   1.406       .  S
C1290      C1291   1.406       .  S
C1291      C1292   1.202       .  T
C1293      C1294   1.202       .  T
C1294      C1295   1.407       .  S
C1295      C1296   1.203       .  T
