geometry optimzed in LAMMPS
_audit_creation_date              2020-11-30 
_audit_creation_method            'lammps2cif' 
_symmetry_space_group_name_H-M    'P1' 
_symmetry_Int_Tables_number       1 
_symmetry_cell_setting            triclinic 
loop_ 
_symmetry_equiv_pos_as_xyz 
  x,y,z 
_cell_length_a                    29.92761565 
_cell_length_b                    29.869756338146612 
_cell_length_c                    30.02692238489253 
_cell_angle_alpha                 89.28912459457867 
_cell_angle_beta                  90.09530181225429 
_cell_angle_gamma                 89.14743982292948 
loop_ 
_atom_site_label 
_atom_site_type_symbol 
_atom_site_fract_x 
_atom_site_fract_y 
_atom_site_fract_z 
_atom_site_charge 
O1          O  0.53473622  0.73070470  0.93313604    -0.72200
O2          O  0.44154441  0.64526844  0.94272308    -0.72400
O3          O  0.44102097  0.73374567  0.93225271    -0.72200
O4          O  0.53090791  0.64257717  0.94281078    -0.72200
O5          O  0.53399684  0.65260359  0.01416177    -0.72200
O6          O  0.43909054  0.73847035  0.00411141    -0.72200
O7          O  0.44445958  0.65059754  0.01470709    -0.72200
O8          O  0.53149268  0.74117660  0.00444355    -0.72300
V9          V  0.48708170  0.68886509  0.93896648     1.35200
V10         V  0.48724664  0.69607795  0.00788964     1.35200
C11         C  0.55193147  0.74681779  0.96801968     0.77100
C12         C  0.42798093  0.63267266  0.98067728     0.77100
C13         C  0.42055947  0.74672204  0.96684002     0.77000
C14         C  0.54802061  0.63223098  0.98012197     0.77000
C15         C  0.88379802  0.68307846  0.98255523     0.86100
C16         C  0.90071943  0.69822322  0.93841657    -0.54100
C17         C  0.91864645  0.74061817  0.93570500     0.09000
C18         C  0.90912400  0.76733193  0.98064382     0.20000
C19         C  0.92368215  0.69300692  0.01213458    -0.54800
C20         C  0.93205699  0.73791607  0.01882592     0.09100
C21         C  0.84762522  0.71708497  0.99460525    -0.54400
C22         C  0.85764020  0.76183316  0.98928584     0.09700
H23         H  0.90350766  0.67256700  0.91358921     0.14200
H24         H  0.92031781  0.80256412  0.97933748     0.00000
H25         H  0.93986389  0.66729203  0.03222466     0.14500
H26         H  0.81558756  0.70487935  0.00575065     0.14300
C27         C  0.73730882  0.81043031  0.98802388     0.86100
C28         C  0.74725724  0.82918691  0.03402591    -0.54100
C29         C  0.78609424  0.85314363  0.03827561     0.09000
C30         C  0.81603443  0.84894235  0.99595904     0.20000
C31         C  0.74562193  0.84728763  0.95495366    -0.54800
C32         C  0.78486252  0.87012945  0.95861362     0.09100
C33         C  0.77638079  0.77900051  0.98011609    -0.54400
C34         C  0.81852930  0.79617821  0.98676090     0.09700
H35         H  0.72346316  0.82432254  0.06069354     0.14200
H36         H  0.84885337  0.86538043  0.99927082     0.00000
H37         H  0.72085142  0.85325573  0.92915098     0.14500
H38         H  0.77062345  0.74500841  0.97048783     0.14300
O39         O  0.79109756  0.48414808  0.94713108    -0.72200
O40         O  0.70756622  0.38928204  0.95528683    -0.72400
O41         O  0.70237161  0.47882021  0.95013826    -0.72200
O42         O  0.79611801  0.39204883  0.95184227    -0.72200
O43         O  0.79731100  0.39359569  0.02401436    -0.72200
O44         O  0.70602753  0.48372347  0.02207583    -0.72200
O45         O  0.70916074  0.39379174  0.02740057    -0.72200
O46         O  0.79526849  0.48533798  0.01926372    -0.72300
V47         V  0.74973823  0.43623428  0.95246609     1.35200
V48         V  0.75222650  0.43922244  0.02176730     1.35200
C49         C  0.80558973  0.50250885  0.98203639     0.77100
C50         C  0.69447796  0.37522401  0.99291626     0.77100
C51         C  0.68788383  0.49584951  0.98566944     0.77000
C52         C  0.80908098  0.37459552  0.98831731     0.77000
C53         C  0.74224724  0.04344331  0.01173258     0.86100
C54         C  0.75707698  0.02847094  0.96651150    -0.54100
C55         C  0.80088483  0.01272076  0.96229576     0.09000
C56         C  0.82740941  0.01773495  0.00754414     0.20000
C57         C  0.75361204  0.00330731  0.03965753    -0.54800
C58         C  0.79822385  0.99113227  0.04324567     0.09100
C59         C  0.77595335  0.07942000  0.02345874    -0.54400
C60         C  0.82091183  0.06909469  0.01864310     0.09700
H61         H  0.73300097  0.02870746  0.94002505     0.14200
H62         H  0.86283258  0.00640981  0.00583526     0.00000
H63         H  0.72700708  0.98731114  0.05821274     0.14500
H64         H  0.76284919  0.11188905  0.03198952     0.14300
C65         C  0.86886490  0.18626594  0.99006367     0.86100
C66         C  0.91152711  0.18485632  0.01754076    -0.54100
C67         C  0.92780788  0.14352207  0.03035164     0.09000
C68         C  0.90615143  0.10695015  0.00029630     0.20000
C69         C  0.88045345  0.16403230  0.94656735    -0.54800
C70         C  0.90877892  0.12787639  0.95065089     0.09100
C71         C  0.83797984  0.15172797  0.01031066    -0.54400
C72         C  0.85443344  0.10810345  0.01310497     0.09700
H73         H  0.92506819  0.21591584  0.02971603     0.14200
H74         H  0.92219485  0.07334658  0.00356811     0.00000
H75         H  0.87084845  0.17843397  0.91468609     0.14500
H76         H  0.80410753  0.16241305  0.01648212     0.14300
O77         O  0.53986534  0.13029819  0.98892980    -0.72200
O78         O  0.45555189  0.22629247  0.98344507    -0.72400
O79         O  0.54416306  0.21883002  0.97706652    -0.72200
O80         O  0.44815961  0.13912785  0.99576900    -0.72200
O81         O  0.45090748  0.15164755  0.06677213    -0.72200
O82         O  0.55301237  0.22382975  0.04862013    -0.72200
O83         O  0.46484955  0.23776824  0.05410073    -0.72200
O84         O  0.54331702  0.13611448  0.06073206    -0.72300
V85         V  0.49716688  0.17827555  0.98774473     1.35200
V86         V  0.50299302  0.18652929  0.05632817     1.35200
C87         C  0.55871742  0.11908007  0.02524147     0.77100
C88         C  0.44611849  0.24859474  0.01769599     0.77100
C89         C  0.56418717  0.23574470  0.00974111     0.77000
C90         C  0.42961371  0.13708533  0.03362390     0.77000
C91         C  0.10554555  0.19037271  0.02965590     0.86100
C92         C  0.06147658  0.18767332  0.00464447    -0.54100
C93         C  0.04713642  0.14510896  0.99460109     0.09000
C94         C  0.07173963  0.11029399  0.02653475     0.20000
C95         C  0.09634704  0.16919548  0.07524245    -0.54800
C96         C  0.06941955  0.13260586  0.07413108     0.09100
C97         C  0.13567876  0.15570981  0.00773127    -0.54400
C98         C  0.12292991  0.11188729  0.01336147     0.09700
H99         H  0.04669749  0.21804013  0.99064119     0.14200
H100        H  0.05743807  0.07626049  0.02554621     0.00000
H101        H  0.10601353  0.18406574  0.10632762     0.14500
H102        H  0.16894294  0.16492171  0.99687690     0.14300
C103        C  0.24255278  0.07833093  0.02614892     0.86100
C104        C  0.24043636  0.03598551  0.05226355    -0.54100
C105        C  0.20578769  0.00840153  0.04441694     0.09000
C106        C  0.17043016  0.03090405  0.01185755     0.20000
C107        C  0.23179316  0.06887363  0.97733640    -0.54800
C108        C  0.19757924  0.03963201  0.96909686     0.09100
C109        C  0.20033552  0.10117796  0.04254176    -0.54400
C110        C  0.16067042  0.08019455  0.02994233     0.09700
H111        H  0.26525220  0.03038376  0.07816524     0.14200
H112        H  0.14018094  0.01059941  0.00651530     0.00000
H113        H  0.25235289  0.08370440  0.95159723     0.14500
H114        H  0.20159710  0.13440738  0.05664154     0.14300
C115        C  0.11501826  0.68434626  0.02187551     0.86100
C116        C  0.08860140  0.70028653  0.06134368    -0.54100
C117        C  0.06096175  0.73612953  0.05382414     0.09000
C118        C  0.07106803  0.76032315  0.00720371     0.20000
C119        C  0.08333014  0.68506963  0.98196805    -0.54800
C120        C  0.05896556  0.72351128  0.97322645     0.09100
C121        C  0.14504430  0.72342342  0.01493262    -0.54400
C122        C  0.12469691  0.76424531  0.00421472     0.09700
H123        H  0.09034454  0.68408306  0.09367978     0.14200
H124        H  0.05263900  0.79242241  0.00168551     0.00000
H125        H  0.08279469  0.65577771  0.96128357     0.14500
H126        H  0.18074695  0.71806301  0.01902163     0.14300
C127        C  0.23371827  0.81552119  0.96284210     0.86100
C128        C  0.21198355  0.84635893  0.92816561    -0.54100
C129        C  0.18096121  0.87574326  0.94534575     0.09000
C130        C  0.15913072  0.85430322  0.98992553     0.20000
C131        C  0.23589057  0.84195550  0.00709482    -0.54800
C132        C  0.19679625  0.85967910  0.02374691     0.09100
C133        C  0.19633890  0.78358796  0.96846731    -0.54400
C134        C  0.15634835  0.80052890  0.98455589     0.09700
H135        H  0.22772028  0.85375352  0.89676192     0.14200
H136        H  0.12733292  0.87053226  0.00043485     0.00000
H137        H  0.26791671  0.84682415  0.02315498     0.14500
H138        H  0.20222633  0.74901879  0.95948571     0.14300
O139        O  0.19480883  0.47967172  0.05546829    -0.72200
O140        O  0.28993066  0.39517718  0.05085811    -0.72400
O141        O  0.28270072  0.48439345  0.04588809    -0.72200
O142        O  0.20133414  0.38795098  0.05941214    -0.72200
O143        O  0.19116187  0.38873136  0.98789604    -0.72200
O144        O  0.27884887  0.47750514  0.97408825    -0.72200
O145        O  0.27983654  0.38827711  0.97963704    -0.72200
O146        O  0.19108688  0.48033304  0.98327862    -0.72300
V147        V  0.24166938  0.43658674  0.05164065     1.35200
V148        V  0.23490458  0.43362152  0.98264659     1.35200
C149        C  0.18107656  0.49837313  0.01996466     0.77100
C150        C  0.30122386  0.37742530  0.01459490     0.77100
C151        C  0.29507309  0.49680152  0.00741129     0.77000
C152        C  0.18396836  0.37045339  0.02535232     0.77000
O153        O  0.55135250  0.92442390  0.80099502    -0.72200
O154        O  0.45047129  0.91479163  0.72369004    -0.72400
O155        O  0.53961894  0.91182909  0.71471351    -0.72200
O156        O  0.45960579  0.92570668  0.81133117    -0.72200
O157        O  0.45595656  0.99728202  0.79875284    -0.72200
O158        O  0.54294089  0.98398501  0.70658431    -0.72200
O159        O  0.45323264  0.98644096  0.71136274    -0.72200
O160        O  0.54860986  0.99662520  0.79361913    -0.72300
V161        V  0.50023994  0.92063209  0.76297149     1.35200
V162        V  0.50013673  0.98978531  0.75318145     1.35200
C163        C  0.56970615  0.96201122  0.80695536     0.77100
C164        C  0.43535417  0.94933747  0.70355956     0.77100
C165        C  0.55610220  0.94528565  0.69511959     0.77000
C166        C  0.44040814  0.96292982  0.81833650     0.77000
C167        C  0.88577638  0.89725795  0.75329219     0.86100
C168        C  0.90883125  0.94310667  0.75749219    -0.54100
C169        C  0.92517939  0.95465179  0.79894624     0.09000
C170        C  0.92140359  0.91544657  0.83127135     0.20000
C171        C  0.91942544  0.86263884  0.76899755    -0.54800
C172        C  0.94524696  0.87546229  0.80446805     0.09100
C173        C  0.85364824  0.89345682  0.79122290    -0.54400
C174        C  0.86874133  0.90670690  0.83241341     0.09700
H175        H  0.91144686  0.96469510  0.72830316     0.14200
H176        H  0.93613543  0.92173923  0.86451141     0.00000
H177        H  0.92799306  0.83382276  0.74910944     0.14500
H178        H  0.82007261  0.88204558  0.78460601     0.14300
C179        C  0.75694063  0.96046875  0.86997125     0.86100
C180        C  0.75104979  0.92990773  0.91060620    -0.54100
C181        C  0.78880334  0.91301345  0.93069057     0.09000
C182        C  0.83026668  0.93883228  0.91400248     0.20000
C183        C  0.78326254  0.00078872  0.88539675    -0.54800
C184        C  0.81451663  0.99041302  0.91804480     0.09100
C185        C  0.79193052  0.93913214  0.84175715    -0.54400
C186        C  0.83207189  0.92764150  0.86212012     0.09700
H187        H  0.71756481  0.92214166  0.92176307     0.14200
H188        H  0.86139533  0.93001070  0.93243430     0.00000
H189        H  0.77101890  0.03475268  0.87958702     0.14500
H190        H  0.78482022  0.93751493  0.80657158     0.14300
O191        O  0.80127547  0.93787280  0.55219837    -0.72200
O192        O  0.71519446  0.94889177  0.45898847    -0.72400
O193        O  0.71345657  0.94885826  0.54792812    -0.72200
O194        O  0.80335612  0.93803700  0.46023073    -0.72200
O195        O  0.79387108  0.86639893  0.45820026    -0.72200
O196        O  0.70731239  0.87662030  0.55100925    -0.72200
O197        O  0.70572687  0.87714540  0.46176501    -0.72200
O198        O  0.79618212  0.86554368  0.55095678    -0.72300
V199        V  0.75871262  0.94190119  0.50486160     1.35200
V200        V  0.75143614  0.87266968  0.50550871     1.35200
C201        C  0.81046800  0.90016364  0.57007153     0.77100
C202        C  0.69484099  0.91491324  0.44524137     0.77100
C203        C  0.69478539  0.91483605  0.56432296     0.77000
C204        C  0.81008308  0.90135241  0.44052445     0.77000
C205        C  0.13134252  0.97594640  0.74839564     0.86100
C206        C  0.11096948  0.92945796  0.75217164    -0.54100
C207        C  0.09364812  0.91628639  0.79301191     0.09000
C208        C  0.09415652  0.95556886  0.82577834     0.20000
C209        C  0.09552443  0.00835288  0.76259812    -0.54800
C210        C  0.07061932  0.99582968  0.79864810     0.09100
C211        C  0.16311901  0.97874734  0.78721767    -0.54400
C212        C  0.14600050  0.96672064  0.82836411     0.09700
H213        H  0.11048382  0.90913518  0.72269108     0.14200
H214        H  0.07876707  0.94765062  0.85848288     0.00000
H215        H  0.08916442  0.03931181  0.74447971     0.14500
H216        H  0.19694946  0.98996611  0.78171339     0.14300
C217        C  0.25729705  0.96080348  0.89307840     0.86100
C218        C  0.24399208  0.00482285  0.91210413    -0.54100
C219        C  0.20191327  0.00811939  0.92981256     0.09000
C220        C  0.17283563  0.96561693  0.91795067     0.20000
C221        C  0.24429992  0.92815932  0.93063773    -0.54800
C222        C  0.19860915  0.92444773  0.93940998     0.09100
C223        C  0.22379901  0.95319443  0.85603500    -0.54400
C224        C  0.17937348  0.95956292  0.86651227     0.09700
H225        H  0.27032762  0.02862075  0.91623995     0.14200
H226        H  0.13739084  0.96877634  0.92837844     0.00000
H227        H  0.26831584  0.90451466  0.94455763     0.14500
H228        H  0.23574752  0.94536472  0.82295707     0.14300
O229        O  0.21569247  0.00954726  0.44782768    -0.72200
O230        O  0.29350848  0.99580733  0.54720381    -0.72400
O231        O  0.30241826  0.99352226  0.45841475    -0.72200
O232        O  0.20675557  0.01123825  0.54059395    -0.72200
O233        O  0.19847166  0.93922866  0.54446004    -0.72200
O234        O  0.28753738  0.92261925  0.45639663    -0.72200
O235        O  0.28544154  0.92377569  0.54618050    -0.72200
O236        O  0.20032993  0.93885529  0.45187945    -0.72300
V237        V  0.25385746  0.00126956  0.49840325     1.35200
V238        V  0.24266158  0.93255593  0.49958138     1.35200
C239        C  0.19784495  0.97577504  0.43049516     0.77100
C240        C  0.30273542  0.95772958  0.56378106     0.77100
C241        C  0.31076574  0.95503763  0.44307932     0.77000
C242        C  0.19155602  0.97737254  0.56115730     0.77000
C243        C  0.25206300  0.91269302  0.11795687     0.86100
C244        C  0.23281173  0.87242281  0.09511343    -0.54100
C245        C  0.19514137  0.88155867  0.06959863     0.09000
C246        C  0.17347590  0.92966389  0.08066080     0.20000
C247        C  0.25105655  0.94881391  0.08187091    -0.54800
C248        C  0.21007955  0.96203285  0.06532051     0.09100
C249        C  0.21525573  0.92379930  0.15059738    -0.54400
C250        C  0.17365592  0.93491349  0.13320982     0.09700
H251        H  0.25119652  0.84097850  0.09341202     0.14200
H252        H  0.14041748  0.93663308  0.06506566     0.00000
H253        H  0.28230572  0.96324556  0.07095598     0.14500
H254        H  0.22296696  0.92226558  0.18588147     0.14300
C255        C  0.12857103  0.96173115  0.24580752     0.86100
C256        C  0.09005577  0.99247409  0.23611796    -0.54100
C257        C  0.06280263  0.98156886  0.20135260     0.09000
C258        C  0.08659959  0.94447221  0.17074701     0.20000
C259        C  0.11284162  0.91320419  0.23959045    -0.54800
C260        C  0.08938874  0.90348126  0.20128107     0.09100
C261        C  0.15665802  0.97076376  0.20493687    -0.54400
C262        C  0.13862675  0.95668843  0.16485050     0.09700
H263        H  0.08261404  0.01925032  0.25929212     0.14200
H264        H  0.06885700  0.93865101  0.13891023     0.00000
H265        H  0.12031847  0.88879165  0.26534412     0.14500
H266        H  0.19063941  0.98207283  0.20827421     0.14300
C267        C  0.75669733  0.93135051  0.13702742     0.86100
C268        C  0.77938725  0.97327502  0.11919328    -0.54100
C269        C  0.81124483  0.96573986  0.08683055     0.09000
C270        C  0.82995648  0.91544594  0.09138067     0.20000
C271        C  0.75212554  0.89855177  0.09889366    -0.54800
C272        C  0.78966370  0.88718149  0.07566742     0.09100
C273        C  0.79374256  0.91331858  0.16517355    -0.54400
C274        C  0.83403351  0.90427774  0.14401092     0.09700
H275        H  0.76465944  0.00622805  0.12401550     0.14200
H276        H  0.86116566  0.90915856  0.07242636     0.00000
H277        H  0.71929111  0.88630044  0.09114062     0.14500
H278        H  0.78826438  0.91268491  0.20083927     0.14300
C279        C  0.87507228  0.90559532  0.25432845     0.86100
C280        C  0.92350389  0.89327655  0.25776611    -0.54100
C281        C  0.94717903  0.89301132  0.21894069     0.09000
C282        C  0.91899713  0.91614831  0.17966912     0.20000
C283        C  0.87336164  0.95321004  0.23399592    -0.54800
C284        C  0.90267776  0.96152697  0.19962644     0.09100
C285        C  0.85913543  0.87563044  0.21637121    -0.54400
C286        C  0.87376196  0.88897254  0.17447214     0.09700
H287        H  0.93563387  0.88213908  0.28999907     0.14200
H288        H  0.93754667  0.91993629  0.14791715     0.00000
H289        H  0.85207751  0.97898064  0.24808768     0.14500
H290        H  0.82959600  0.85543574  0.22058249     0.14300
O291        O  0.54530606  0.96419984  0.19814912    -0.72200
O292        O  0.45791614  0.96780159  0.28866721    -0.72400
O293        O  0.54706182  0.96718353  0.28668400    -0.72200
O294        O  0.45237223  0.96222951  0.20028920    -0.72200
O295        O  0.45925827  0.88996115  0.19979681    -0.72200
O296        O  0.54261393  0.89512780  0.29420552    -0.72200
O297        O  0.45366806  0.89523504  0.28830611    -0.72200
O298        O  0.55164385  0.89232944  0.20694066    -0.72300
V299        V  0.50055495  0.96407013  0.24284975     1.35200
V300        V  0.50173980  0.89448477  0.24665888     1.35200
C301        C  0.56804094  0.92874418  0.19257041     0.77100
C302        C  0.44102536  0.93250153  0.30403629     0.77100
C303        C  0.55976482  0.93131515  0.30632057     0.77000
C304        C  0.43734068  0.92459750  0.18804497     0.77000
O305        O  0.96881659  0.38501759  0.80048046    -0.72200
O306        O  0.95284638  0.47794000  0.71289213    -0.72400
O307        O  0.95775000  0.38760984  0.71308961    -0.72200
O308        O  0.96318475  0.47781989  0.80043021    -0.72200
O309        O  0.03521381  0.47908878  0.79458938    -0.72200
O310        O  0.02914102  0.39316974  0.70169473    -0.72200
O311        O  0.02496340  0.48279261  0.70763881    -0.72200
O312        O  0.04038487  0.38568295  0.78891892    -0.72300
V313        V  0.96207137  0.43209815  0.75698362     1.35200
V314        V  0.03112402  0.43504601  0.74886550     1.35200
C315        C  0.00685357  0.36622440  0.80535922     0.77100
C316        C  0.98660078  0.49710490  0.69649947     0.77100
C317        C  0.99238985  0.37496316  0.69260932     0.77000
C318        C  0.99940384  0.49740646  0.80865822     0.77000
C319        C  0.04296123  0.82380219  0.74420808     0.86100
C320        C  0.00682852  0.86023709  0.75021557    -0.54100
C321        C  0.99542422  0.87053899  0.79372670     0.09000
C322        C  0.03282847  0.85342570  0.82579134     0.20000
C323        C  0.08513777  0.84242609  0.76428647    -0.54800
C324        C  0.07788983  0.86801403  0.80114059     0.09100
C325        C  0.03210443  0.78787499  0.77838136    -0.54400
C326        C  0.03034575  0.80050152  0.82259231     0.09700
H327        H  0.98700713  0.87129870  0.72163911     0.14200
H328        H  0.02972045  0.86639614  0.86013228     0.00000
H329        H  0.11719282  0.84165217  0.74811752     0.14500
H330        H  0.02641248  0.75450053  0.76641597     0.14300
C331        C  0.99954148  0.68676637  0.86680834     0.86100
C332        C  0.01702572  0.68443745  0.91408206    -0.54100
C333        C  0.02561208  0.72424641  0.93422889     0.09000
C334        C  0.00342809  0.76426404  0.90690553     0.20000
C335        C  0.95511319  0.71345422  0.86833728    -0.54800
C336        C  0.95399671  0.74783858  0.89875049     0.09100
C337        C  0.02957729  0.71994060  0.84365463    -0.54400
C338        C  0.02700596  0.76339919  0.85898359     0.09700
H339        H  0.02297606  0.65188686  0.92933004     0.14200
H340        H  0.00547687  0.79705539  0.92368329     0.00000
H341        H  0.92489900  0.70166684  0.85267889     0.14500
H342        H  0.04755384  0.70976553  0.81419054     0.14300
O343        O  0.98553571  0.74137433  0.45223205    -0.72200
O344        O  0.96249224  0.66234976  0.55004306    -0.72400
O345        O  0.98548527  0.74785675  0.54443061    -0.72200
O346        O  0.96192642  0.65680535  0.46130185    -0.72200
O347        O  0.03266329  0.63908779  0.45993259    -0.72200
O348        O  0.05526660  0.72713951  0.54729654    -0.72200
O349        O  0.03247508  0.64187787  0.54932790    -0.72200
O350        O  0.05608732  0.72389409  0.45542282    -0.72300
V351        V  0.97534255  0.70233686  0.50200048     1.35200
V352        V  0.04283600  0.68371821  0.50303263     1.35200
C353        C  0.02389670  0.74192468  0.43424658     0.73500
C354        C  0.99397170  0.63848378  0.56606899     0.77100
C355        C  0.02307169  0.74938174  0.56371934     0.77000
C356        C  0.99333624  0.63300378  0.44608237     0.77000
C357        C  0.95837615  0.69375875  0.12510399     0.86100
C358        C  0.92297849  0.71685283  0.09647068    -0.54100
C359        C  0.93882262  0.75008693  0.06845942     0.09000
C360        C  0.98388659  0.77004334  0.08786943     0.20000
C361        C  0.00296920  0.69294914  0.09825287    -0.54800
C362        C  0.01700836  0.73259912  0.07892595     0.09100
C363        C  0.96596378  0.73037382  0.15829689    -0.54400
C364        C  0.98205191  0.77049113  0.14120090     0.09700
H365        H  0.89214240  0.69927785  0.08974715     0.14200
H366        H  0.99344798  0.80248241  0.07248574     0.00000
H367        H  0.02270704  0.66255377  0.09609779     0.14500
H368        H  0.96198778  0.72363192  0.19350790     0.14300
C369        C  0.04103035  0.80494741  0.24931743     0.86100
C370        C  0.07977674  0.82765390  0.22677203    -0.54100
C371        C  0.06791676  0.85802646  0.19410305     0.09000
C372        C  0.01779904  0.85067589  0.17710609     0.20000
C373        C  0.00469977  0.84123238  0.25505795    -0.54800
C374        C  0.98985682  0.86427912  0.21779589     0.09100
C375        C  0.02524346  0.77613607  0.21192787    -0.54400
C376        C  0.01030627  0.79802172  0.17387147     0.09700
H377        H  0.11383323  0.82376989  0.23797157     0.14200
H378        H  0.00867915  0.86947874  0.14623219     0.00000
H379        H  0.99194168  0.84604503  0.28831172     0.14500
H380        H  0.02644080  0.74004878  0.21633684     0.14300
O381        O  0.91363715  0.39219318  0.22026831    -0.72200
O382        O  0.92543223  0.48856340  0.30149826    -0.72400
O383        O  0.91016538  0.48755558  0.21471122    -0.72200
O384        O  0.92857386  0.39933459  0.30656985    -0.72200
O385        O  0.99963198  0.39722555  0.29203019    -0.72200
O386        O  0.98166907  0.48910135  0.20347883    -0.72200
O387        O  0.99716933  0.48729948  0.29040039    -0.72200
O388        O  0.98434019  0.39565149  0.20512894    -0.72300
V389        V  0.92064350  0.44187230  0.25971616     1.35200
V390        V  0.98919343  0.44237760  0.24750421     1.35200
C391        C  0.94824348  0.37414375  0.20330934     0.77100
C392        C  0.96362174  0.50358379  0.31024881     0.77100
C393        C  0.94346405  0.50729380  0.19752317     0.77000
C394        C  0.96708600  0.38339011  0.31496751     0.77000
C395        C  0.96422893  0.05951659  0.75737110     0.86100
C396        C  0.00584723  0.02895595  0.75536957    -0.54100
C397        C  0.02133498  0.01012477  0.79472727     0.09000
C398        C  0.98676867  0.01701822  0.83185424     0.20000
C399        C  0.92749178  0.03110323  0.77591268    -0.54800
C400        C  0.94055597  0.00208732  0.80911763     0.09100
C401        C  0.97126505  0.09016139  0.79639724    -0.54400
C402        C  0.98492251  0.07005691  0.83643158     0.09700
H403        H  0.02269258  0.02451511  0.72371270     0.14200
H404        H  0.99543079  0.99904322  0.86333332     0.00000
H405        H  0.89517319  0.02884832  0.75994835     0.14500
H406        H  0.96635006  0.12596347  0.79149154     0.14300
C407        C  0.00549586  0.18196354  0.88050130     0.86100
C408        C  0.95789822  0.17285486  0.89721952    -0.54100
C409        C  0.95121811  0.13430463  0.92257782     0.09000
C410        C  0.99429865  0.10586785  0.92431509     0.20000
C411        C  0.03565932  0.17585249  0.91914101    -0.54800
C412        C  0.02957790  0.13924999  0.94628572     0.09100
C413        C  0.01879897  0.14125441  0.85399920    -0.54400
C414        C  0.00656698  0.10049740  0.87210886     0.09700
H415        H  0.93266313  0.19827351  0.89063142     0.14200
H416        H  0.99077940  0.07381271  0.94295839     0.00000
H417        H  0.06000950  0.20147683  0.92449755     0.14500
H418        H  0.03075815  0.14451284  0.82025549     0.14300
C419        C  0.97059235  0.04123031  0.26191657     0.86100
C420        C  0.92708683  0.02626675  0.24259795    -0.54100
C421        C  0.92997116  0.00444445  0.20243775     0.09000
C422        C  0.97663465  0.01363879  0.17925608     0.20000
C423        C  0.00245119  0.00142417  0.25518007    -0.54800
C424        C  0.01252657  0.99087537  0.21122710     0.09100
C425        C  0.98729019  0.07614448  0.22874240    -0.54400
C426        C  0.98382850  0.06553597  0.18443283     0.09700
H427        H  0.89822072  0.02711297  0.26410594     0.14200
H428        H  0.97841439  0.00208965  0.14431709     0.00000
H429        H  0.02176321  0.98847855  0.28304934     0.14500
H430        H  0.99808491  0.10857151  0.24004771     0.14300
C431        C  0.97101553  0.18648211  0.14128882     0.86100
C432        C  0.01838472  0.17839767  0.12401468    -0.54100
C433        C  0.02653557  0.13924273  0.10086976     0.09000
C434        C  0.98487171  0.10937355  0.10012360     0.20000
C435        C  0.93997694  0.17815977  0.10354300    -0.54800
C436        C  0.94749369  0.14092264  0.07804227     0.09100
C437        C  0.96283542  0.14585358  0.17049920    -0.54400
C438        C  0.97329558  0.10455916  0.15181822     0.09700
H439        H  0.04270809  0.20418307  0.12923984     0.14200
H440        H  0.99040530  0.07722647  0.08269677     0.00000
H441        H  0.91355420  0.20258518  0.09747864     0.14500
H442        H  0.95178842  0.14988710  0.20443123     0.14300
O443        O  0.92467548  0.14179180  0.45658211    -0.72200
O444        O  0.93930852  0.22392294  0.55134047    -0.72400
O445        O  0.93658725  0.22984680  0.46264896    -0.72200
O446        O  0.92712575  0.13628475  0.54924949    -0.72200
O447        O  0.99948126  0.13200329  0.55195623    -0.72200
O448        O  0.00700225  0.21385778  0.45366001    -0.72200
O449        O  0.01131189  0.21953992  0.54240095    -0.72200
O450        O  0.99549142  0.12522011  0.45999658    -0.72300
V451        V  0.93310526  0.18221627  0.50472524     1.35200
V452        V  0.00200199  0.17221011  0.50202488     1.35200
C453        C  0.95826112  0.12146695  0.44036122     0.77100
C454        C  0.97791109  0.23708346  0.56147244     0.77100
C455        C  0.97325509  0.23792554  0.44349478     0.77000
C456        C  0.96211796  0.12348058  0.56988746     0.77000
C457        C  0.96457937  0.05948467  0.31005509    -0.00500
C458        C  0.94888950  0.10397510  0.31525259    -0.12400
C459        C  0.94415994  0.12351046  0.35731182     0.01700
C460        C  0.95569257  0.09898947  0.39630029    -0.00600
C461        C  0.96743468  0.05367270  0.39200108    -0.12300
C462        C  0.96903300  0.03326457  0.34983486     0.01600
H463        H  0.93974820  0.12394186  0.28619254     0.14600
H464        H  0.97337797  0.03365300  0.42186469     0.14600
C465        C  0.96866016  0.98513436  0.34950888     0.36200
C466        C  0.92782866  0.16918745  0.35905164     0.36100
N467        N  0.96642080  0.94652922  0.35055530    -0.44100
N468        N  0.91405370  0.20558263  0.35945239    -0.44100
C469        C  0.95816921  0.08180988  0.71038188    -0.00500
C470        C  0.92406261  0.06873888  0.68049797    -0.12400
C471        C  0.92468725  0.08084632  0.63475674     0.01700
C472        C  0.96024919  0.10601579  0.61703825    -0.00600
C473        C  0.99344780  0.12003177  0.64663986    -0.12300
C474        C  0.99266023  0.10882876  0.69220066     0.01600
H475        H  0.89756089  0.04721362  0.69152055     0.14600
H476        H  0.02041697  0.14054007  0.63413411     0.14600
C477        C  0.02994537  0.12342447  0.71865512     0.36200
C478        C  0.88961540  0.06481619  0.60631115     0.36100
N479        N  0.06047871  0.13512935  0.73887336    -0.44100
N480        N  0.86151260  0.05166188  0.58364687    -0.44100
C481        C  0.97596370  0.27587400  0.41141147    -0.00500
C482        C  0.95024694  0.31440829  0.42020921    -0.12400
C483        C  0.94878763  0.35056075  0.39025712     0.01700
C484        C  0.97307625  0.34855382  0.35008921    -0.00600
C485        C  0.00041169  0.31084239  0.34196141    -0.12300
C486        C  0.00199099  0.27452054  0.37220455     0.01600
H487        H  0.93102712  0.31628885  0.45075597     0.14600
H488        H  0.01888658  0.30884276  0.31098638     0.14600
C489        C  0.02795971  0.23522487  0.36071517     0.36200
C490        C  0.92277408  0.38974422  0.40207617     0.36100
N491        N  0.04855338  0.20363330  0.35132896    -0.44100
N492        N  0.90209644  0.42115806  0.41181091    -0.44100
C493        C  0.96401930  0.23556974  0.15843820    -0.00500
C494        C  0.94324809  0.24524074  0.19947722    -0.12400
C495        C  0.93523648  0.28988484  0.21326394     0.01700
C496        C  0.94871706  0.32685732  0.18651641    -0.00600
C497        C  0.96944794  0.31757240  0.14601975    -0.12300
C498        C  0.97599100  0.27338611  0.13138655     0.01600
H499        H  0.93239935  0.21831511  0.22102926     0.14600
H500        H  0.98073573  0.34529565  0.12543887     0.14600
C501        C  0.99614357  0.26882913  0.08816007     0.36200
C502        C  0.91427404  0.29647931  0.25595391     0.36100
N503        N  0.01304307  0.26662342  0.05369205    -0.44100
N504        N  0.89714048  0.30091318  0.29016772    -0.44100
C505        C  0.94631516  0.64471209  0.14196743    -0.00500
C506        C  0.96159647  0.60695273  0.11738529    -0.12400
C507        C  0.96045462  0.56267065  0.13429728     0.01700
C508        C  0.93926048  0.55297931  0.17498320    -0.00600
C509        C  0.91827295  0.58924677  0.19700597    -0.12300
C510        C  0.92138901  0.63430193  0.18104022     0.01600
H511        H  0.97567563  0.61146644  0.08453655     0.14600
H512        H  0.90081556  0.58267197  0.22796471     0.14600
C513        C  0.89734333  0.66863603  0.20483105     0.36200
C514        C  0.98169332  0.52747338  0.10908653     0.36100
N515        N  0.87781712  0.69611619  0.22384763    -0.44100
N516        N  0.99864150  0.49914157  0.08897087    -0.44100
C517        C  0.98445439  0.60013193  0.41160128    -0.00500
C518        C  0.00998438  0.60166858  0.37261380    -0.12400
C519        C  0.00228291  0.57169836  0.33828400     0.01700
C520        C  0.96932478  0.53875242  0.34343433    -0.00600
C521        C  0.94277795  0.53817520  0.38191280    -0.12300
C522        C  0.94999543  0.56873656  0.41596263     0.01600
H523        H  0.03533667  0.62700191  0.36862062     0.14600
H524        H  0.91720709  0.51310577  0.38589706     0.14600
C525        C  0.92300718  0.56604795  0.45572611     0.36200
C526        C  0.02709521  0.57676226  0.29734104     0.36100
N527        N  0.90143483  0.56390510  0.48761118    -0.44100
N528        N  0.04653320  0.58088327  0.26429256    -0.44100
C529        C  0.04537885  0.78023107  0.29508466    -0.00500
C530        C  0.00626279  0.75819061  0.30927557    -0.12400
C531        C  0.99805354  0.74766332  0.35404316     0.01700
C532        C  0.03008685  0.75720445  0.38704242    -0.00600
C533        C  0.07091719  0.77525242  0.37313101    -0.12300
C534        C  0.07874009  0.78741539  0.32819370     0.01600
H535        H  0.97982977  0.75227119  0.28537743     0.14600
H536        H  0.09674260  0.78065836  0.39780077     0.14600
C537        C  0.12151909  0.80674318  0.31874740     0.36200
C538        C  0.95623890  0.72648947  0.36468463     0.36100
N539        N  0.15661032  0.82150978  0.31292304    -0.44100
N540        N  0.92259412  0.70964956  0.37282129    -0.44100
C541        C  0.04157622  0.80606549  0.69554511    -0.00500
C542        C  0.00162014  0.78472536  0.68328412    -0.12400
C543        C  0.99484770  0.76712930  0.64087923     0.01700
C544        C  0.02777297  0.77175235  0.60759821    -0.00600
C545        C  0.06752218  0.79313986  0.61870891    -0.12300
C546        C  0.07473178  0.81066150  0.66155321     0.01600
H547        H  0.97532530  0.78074696  0.70775407     0.14600
H548        H  0.09330716  0.79619993  0.59353066     0.14600
C549        C  0.11625091  0.83353667  0.66715516     0.36200
C550        C  0.95521315  0.74100803  0.63409211     0.36100
N551        N  0.15029472  0.85126168  0.66933170    -0.44100
N552        N  0.92361846  0.71968470  0.62936666    -0.44100
C553        C  0.98980754  0.33887710  0.65975946    -0.00500
C554        C  0.01392112  0.34242463  0.61987927    -0.12400
C555        C  0.01063692  0.30948208  0.58729371     0.01700
C556        C  0.98356871  0.27191402  0.59503317    -0.00600
C557        C  0.96029503  0.26788702  0.63525015    -0.12300
C558        C  0.96321670  0.30087833  0.66761683     0.01600
H559        H  0.03414923  0.37165626  0.61358595     0.14600
H560        H  0.93994620  0.23869969  0.64146143     0.14600
C561        C  0.93981936  0.29410441  0.70916864     0.36200
C562        C  0.03272005  0.31644862  0.54508887     0.36100
N563        N  0.92119851  0.28860322  0.74249689    -0.44100
N564        N  0.04993841  0.32218864  0.51105199    -0.44100
C565        C  0.98291264  0.53648133  0.66635015    -0.00500
C566        C  0.01744192  0.56770723  0.66810873    -0.12400
C567        C  0.01960759  0.60296707  0.63749009     0.01700
C568        C  0.98710916  0.60724174  0.60366562    -0.00600
C569        C  0.95041060  0.57845691  0.60389672    -0.12300
C570        C  0.94797679  0.54311803  0.63511962     0.01600
H571        H  0.04341375  0.56418792  0.69322704     0.14600
H572        H  0.92489628  0.58216757  0.57839577     0.14600
C573        C  0.91084332  0.51295949  0.63272169     0.36200
C574        C  0.05547404  0.63455258  0.64163929     0.36100
N575        N  0.88096403  0.48889429  0.63083612    -0.44100
N576        N  0.08400280  0.66003625  0.64497634    -0.44100
C577        C  0.99908942  0.54381328  0.82807716    -0.00500
C578        C  0.03910982  0.56778728  0.82996369    -0.12400
C579        C  0.03969975  0.61353918  0.84094970     0.01700
C580        C  0.99924902  0.63821936  0.84818952    -0.00600
C581        C  0.95931796  0.61357859  0.84726439    -0.12300
C582        C  0.95894632  0.56737000  0.83834287     0.01600
H583        H  0.07045904  0.55072364  0.82276657     0.14600
H584        H  0.92783871  0.62935718  0.85548591     0.14600
C585        C  0.91655589  0.54503038  0.84148296     0.36200
C586        C  0.08290620  0.63363192  0.84628815     0.36100
N587        N  0.88258009  0.52724225  0.84453062    -0.44100
N588        N  0.11752563  0.64974605  0.85067931    -0.44100
C589        C  0.01116043  0.32029439  0.82542198    -0.00500
C590        C  0.99392411  0.31180157  0.86772782    -0.12400
C591        C  0.99420046  0.26830236  0.88609036     0.01700
C592        C  0.00889912  0.23047989  0.86086009    -0.00600
C593        C  0.02681682  0.23956254  0.81836991    -0.12300
C594        C  0.02897809  0.28370203  0.80118545     0.01600
H595        H  0.98063084  0.33952172  0.88688966     0.14600
H596        H  0.03985044  0.21272677  0.79822305     0.14600
C597        C  0.04905234  0.29013601  0.75796413     0.36200
C598        C  0.97886262  0.26416902  0.93137175     0.36100
N599        N  0.06578164  0.29454521  0.72350622    -0.44100
N600        N  0.96639260  0.26191372  0.96770558    -0.44100
C601        C  0.61553403  0.93071218  0.17657650    -0.00500
C602        C  0.64472088  0.89532741  0.18849822    -0.12400
C603        C  0.69082455  0.89717831  0.18037649     0.01700
C604        C  0.70995769  0.93523143  0.15905211    -0.00600
C605        C  0.68048259  0.97097108  0.14758520    -0.12300
C606        C  0.63428117  0.96931336  0.15654958     0.01600
H607        H  0.63159306  0.86588885  0.20510766     0.14600
H608        H  0.69259298  0.99983008  0.12971673     0.14600
C609        C  0.60690315  0.00763937  0.14400775     0.36200
C610        C  0.71721117  0.85800201  0.19258204     0.36100
N611        N  0.58484758  0.03840034  0.13433236    -0.44100
N612        N  0.73825933  0.82662538  0.20254912    -0.44100
C613        C  0.29992728  0.91259520  0.13874071    -0.00500
C614        C  0.33119799  0.87735934  0.13252898    -0.12400
C615        C  0.37636490  0.88089461  0.14631289     0.01700
C616        C  0.39203653  0.92067981  0.16626189    -0.00600
C617        C  0.36108493  0.95578014  0.17199806    -0.12300
C618        C  0.31612512  0.95213737  0.15927919     0.01600
H619        H  0.32111966  0.84712342  0.11612988     0.14600
H620        H  0.37169244  0.98622263  0.18798281     0.14600
C621        C  0.28765543  0.99077388  0.16706574     0.36200
C622        C  0.40596423  0.84315371  0.13887169     0.36100
N623        N  0.26532051  0.02200069  0.17341907    -0.44100
N624        N  0.42956375  0.81277645  0.13291513    -0.44100
C625        C  0.34566702  0.94801733  0.40919491    -0.00500
C626        C  0.33789192  0.91705635  0.37525080    -0.12400
C627        C  0.36870463  0.91100387  0.34076743     0.01700
C628        C  0.40834622  0.93572158  0.34040507    -0.00600
C629        C  0.41654911  0.96605763  0.37474173    -0.12300
C630        C  0.38573595  0.97228714  0.40911221     0.01600
H631        H  0.30689946  0.89869680  0.37478544     0.14600
H632        H  0.44728940  0.98487751  0.37476221     0.14600
C633        C  0.39672272  0.00262656  0.44447462     0.36200
C634        C  0.35751391  0.88185485  0.30453819     0.36100
N635        N  0.40566500  0.02677448  0.47288376    -0.44100
N636        N  0.34859259  0.85891667  0.27514779    -0.44100
C637        C  0.14631358  0.96854877  0.29440110    -0.00500
C638        C  0.18576335  0.99210537  0.30357838    -0.12400
C639        C  0.20131378  0.99754302  0.34779109     0.01700
C640        C  0.17840742  0.97798977  0.38438963    -0.00600
C641        C  0.13880371  0.95574919  0.37572555    -0.12300
C642        C  0.12195749  0.95221328  0.33226178     0.01600
H643        H  0.20453799  0.00690759  0.27657505     0.14600
H644        H  0.12081208  0.94070731  0.40332860     0.14600
C645        C  0.08045471  0.92875273  0.32826942     0.36200
C646        C  0.24175312  0.02233617  0.35455677     0.36100
N647        N  0.04827279  0.90811380  0.32513875    -0.44100
N648        N  0.27394048  0.04256179  0.36006291    -0.44100
C649        C  0.15060408  0.98268805  0.70057840    -0.00500
C650        C  0.12709849  0.00822556  0.66743369    -0.12400
C651        C  0.13953534  0.00767504  0.62204501     0.01700
C652        C  0.17533095  0.98032206  0.60808624    -0.00600
C653        C  0.19901322  0.95526402  0.64051100    -0.12300
C654        C  0.18733493  0.95614587  0.68577749     0.01600
H655        H  0.09724864  0.02704377  0.67561092     0.14600
H656        H  0.22707498  0.93439594  0.63029815     0.14600
C657        C  0.21244831  0.92713735  0.71579530     0.36200
C658        C  0.11316165  0.03305532  0.59005141     0.36100
N659        N  0.23255693  0.90358802  0.73955414    -0.44100
N660        N  0.09173460  0.05323362  0.56448015    -0.44100
C661        C  0.65931359  0.91939550  0.41063275    -0.00500
C662        C  0.65446048  0.96002845  0.38661211    -0.12400
C663        C  0.62212937  0.96547465  0.35290596     0.01700
C664        C  0.59353603  0.92978342  0.34277470    -0.00600
C665        C  0.59786663  0.88964969  0.36754034    -0.12300
C666        C  0.63006919  0.88406390  0.40086598     0.01600
H667        H  0.67650715  0.98755673  0.39362471     0.14600
H668        H  0.57592285  0.86193900  0.36083420     0.14600
C669        C  0.63154552  0.84156623  0.42441064     0.36200
C670        C  0.62011585  0.00750382  0.32870409     0.36100
N671        N  0.63246277  0.80737004  0.44297329    -0.44100
N672        N  0.61868281  0.04125534  0.30936681    -0.44100
C673        C  0.83111465  0.90066418  0.39504833    -0.00500
C674        C  0.82772591  0.86231848  0.36835772    -0.12400
C675        C  0.84027183  0.86272549  0.32294215     0.01700
C676        C  0.85440793  0.90297091  0.30186055    -0.00600
C677        C  0.86053832  0.94011684  0.33001326    -0.12300
C678        C  0.84915803  0.93953634  0.37522590     0.01600
H679        H  0.81495867  0.83168902  0.38292690     0.14600
H680        H  0.87625499  0.97002419  0.31739835     0.14600
C681        C  0.85741848  0.97961804  0.40028987     0.36200
C682        C  0.84026786  0.82063603  0.29998979     0.36100
N683        N  0.86414008  0.01183230  0.42010349    -0.44100
N684        N  0.84042104  0.78658716  0.28200494    -0.44100
C685        C  0.86415297  0.89418966  0.70598509    -0.00500
C686        C  0.87681154  0.86128921  0.67451170    -0.12400
C687        C  0.86038695  0.86249428  0.63016504     0.01700
C688        C  0.83178182  0.89768827  0.61542520    -0.00600
C689        C  0.81887606  0.93007423  0.64645181    -0.12300
C690        C  0.83369335  0.92835187  0.69083487     0.01600
H691        H  0.89990677  0.83463094  0.68354718     0.14600
H692        H  0.79592711  0.95674409  0.63618853     0.14600
C693        C  0.81806404  0.96391184  0.71938062     0.36200
C694        C  0.87438214  0.82804191  0.59977018     0.36100
N695        N  0.80563220  0.99310881  0.74135225    -0.44100
N696        N  0.88513479  0.80076139  0.57478356    -0.44100
C697        C  0.59092353  0.93849545  0.66079174    -0.00500
C698        C  0.59256056  0.89766908  0.63789453    -0.12400
C699        C  0.62631339  0.88851700  0.60687799     0.01700
C700        C  0.65930128  0.92081825  0.59815167    -0.00600
C701        C  0.65779089  0.96136378  0.62140431    -0.12300
C702        C  0.62436175  0.97033480  0.65255813     0.01600
H703        H  0.56726519  0.87273964  0.64417606     0.14600
H704        H  0.68332079  0.98618144  0.61569129     0.14600
C705        C  0.62675880  0.01155293  0.67702005     0.36200
C706        C  0.62549958  0.84622674  0.58407416     0.36100
N707        N  0.62896399  0.04451826  0.69669497    -0.44100
N708        N  0.62476507  0.81226109  0.56595990    -0.44100
C709        C  0.39785562  0.94777865  0.67136519    -0.00500
C710        C  0.37161597  0.98672712  0.66539947    -0.12400
C711        C  0.33918179  0.98984322  0.63203970     0.01700
C712        C  0.33295354  0.95363091  0.60285112    -0.00600
C713        C  0.35711156  0.91355100  0.61057054    -0.12300
C714        C  0.38933103  0.91029644  0.64456257     0.01600
H715        H  0.37676704  0.01526276  0.68673251     0.14600
H716        H  0.35203982  0.88521883  0.58899800     0.14600
C717        C  0.41464737  0.86903830  0.64952657     0.36200
C718        C  0.31243929  0.03049595  0.62923890     0.36100
N719        N  0.43492253  0.83594201  0.65358338    -0.44100
N720        N  0.29095732  0.06300092  0.62713523    -0.44100
C721        C  0.61705482  0.96440518  0.82374870    -0.00500
C722        C  0.64318952  0.92513315  0.82241093    -0.12400
C723        C  0.68874139  0.92478432  0.83299465     0.01700
C724        C  0.71033589  0.96445628  0.84731676    -0.00600
C725        C  0.68445174  0.00429358  0.84758147    -0.12300
C726        C  0.63872516  0.00471907  0.83524200     0.01600
H727        H  0.62812918  0.89407204  0.81219681     0.14600
H728        H  0.69916532  0.03511409  0.85852082     0.14600
C729        C  0.61506074  0.04713764  0.83497160     0.36200
C730        C  0.71181705  0.88192552  0.83097832     0.36100
N731        N  0.59631498  0.08130971  0.83452894    -0.44100
N732        N  0.73006968  0.84753979  0.82947729    -0.44100
C733        C  0.39702404  0.96490153  0.84336513    -0.00500
C734        C  0.36492468  0.99705781  0.83003577    -0.12400
C735        C  0.32049144  0.99538935  0.84494662     0.01700
C736        C  0.30652854  0.96161990  0.87579223    -0.00600
C737        C  0.33942931  0.93006167  0.89001437    -0.12300
C738        C  0.38376401  0.93129516  0.87406574     0.01600
H739        H  0.37392841  0.02255733  0.80575313     0.14600
H740        H  0.33120760  0.90341151  0.91294805     0.14600
C741        C  0.41500413  0.89737292  0.88987485     0.36200
C742        C  0.28989898  0.02909774  0.82726615     0.36100
N743        N  0.44000999  0.87016626  0.90258529    -0.44100
N744        N  0.26565487  0.05638622  0.81329518    -0.44100
C745        C  0.16104942  0.54412490  0.02094164    -0.00500
C746        C  0.17302808  0.57415233  0.98688020    -0.12400
C747        C  0.16239957  0.61988985  0.98906401     0.01700
C748        C  0.13701744  0.63709711  0.02522117    -0.00600
C749        C  0.12512182  0.60634176  0.05940125    -0.12300
C750        C  0.13762131  0.56089290  0.05797527     0.01600
H751        H  0.19249958  0.56214058  0.95888233     0.14600
H752        H  0.10462730  0.61630876  0.08710403     0.14600
C753        C  0.12515228  0.53213329  0.09480573     0.36200
C754        C  0.17686886  0.64786677  0.95241976     0.36100
N755        N  0.11531001  0.50940572  0.12459568    -0.44100
N756        N  0.18884533  0.66953755  0.92267625    -0.44100
C757        C  0.12440451  0.23843476  0.02890401    -0.00500
C758        C  0.12433096  0.26534825  0.06745631    -0.12400
C759        C  0.14206940  0.30870881  0.06722632     0.01700
C760        C  0.15965243  0.32714152  0.02760194    -0.00600
C761        C  0.15753875  0.30164098  0.98870071    -0.12300
C762        C  0.14032045  0.25832986  0.98880695     0.01600
H763        H  0.10955058  0.25379303  0.09813682     0.14600
H764        H  0.17086568  0.31504221  0.95780209     0.14600
C765        C  0.14117758  0.23511042  0.94689976     0.36200
C766        C  0.14062173  0.33378152  0.10800890     0.36100
N767        N  0.14300578  0.21704936  0.91305199    -0.44100
N768        N  0.13919909  0.35369340  0.14080762    -0.44100
C769        C  0.41168561  0.28430502  0.01537163    -0.00500
C770        C  0.37693979  0.27975900  0.98434608    -0.12400
C771        C  0.34050909  0.30944117  0.98362025     0.01700
C772        C  0.33911673  0.34544525  0.01349113    -0.00600
C773        C  0.37442291  0.35076578  0.04380078    -0.12300
C774        C  0.41043673  0.32042908  0.04523044     0.01600
H775        H  0.37703164  0.25148669  0.96201010     0.14600
H776        H  0.37373982  0.37858463  0.06669497     0.14600
C777        C  0.44540592  0.32723844  0.07757751     0.36200
C778        C  0.30348397  0.29988437  0.95451462     0.36100
N779        N  0.47326757  0.33264207  0.10366337    -0.44100
N780        N  0.27361631  0.29180381  0.93160081    -0.44100
C781        C  0.29115248  0.09537352  0.03017909    -0.00500
C782        C  0.30226987  0.13576184  0.05079673    -0.12400
C783        C  0.34747363  0.14868665  0.05500558     0.01700
C784        C  0.38258675  0.12165490  0.03740144    -0.00600
C785        C  0.37165220  0.08163572  0.01730769    -0.12300
C786        C  0.32740737  0.06774198  0.01460598     0.01600
H787        H  0.27602679  0.15713592  0.06390248     0.14600
H788        H  0.39819254  0.06065016  0.00387936     0.14600
C789        C  0.32123871  0.02326659  0.99743531     0.36200
C790        C  0.35674270  0.19054182  0.07636077     0.36100
N791        N  0.31757918  0.98707929  0.98479332    -0.44100
N792        N  0.36378458  0.22401039  0.09386814    -0.44100
C793        C  0.60143282  0.09176611  0.02515431    -0.00500
C794        C  0.63278696  0.09768309  0.05938547    -0.12400
C795        C  0.67684221  0.08057820  0.05649206     0.01700
C796        C  0.69207935  0.05845066  0.01741239    -0.00600
C797        C  0.65889318  0.04881785  0.98522261    -0.12300
C798        C  0.61457848  0.06514464  0.98872865     0.01600
H799        H  0.62334739  0.11716208  0.08821434     0.14600
H800        H  0.66620076  0.02757208  0.95733267     0.14600
C801        C  0.58285174  0.05298009  0.95483062     0.36200
C802        C  0.70558016  0.08696960  0.09448424     0.36100
N803        N  0.55720148  0.04292537  0.92800123    -0.44100
N804        N  0.72825844  0.09231725  0.12515976    -0.44100
C805        C  0.66271771  0.33804678  0.99657814    -0.00500
C806        C  0.62911351  0.33450598  0.96426038    -0.12400
C807        C  0.59685826  0.30121611  0.96757827     0.01700
C808        C  0.59883273  0.26977908  0.00313781    -0.00600
C809        C  0.63292003  0.27284931  0.03498389    -0.12300
C810        C  0.66462499  0.30661892  0.03216535     0.01600
H811        H  0.62698721  0.35893124  0.93726634     0.14600
H812        H  0.63462542  0.24890958  0.06243593     0.14600
C813        C  0.69894116  0.30761125  0.06600302     0.36200
C814        C  0.56034089  0.30234128  0.93603674     0.36100
N815        N  0.72610362  0.30812728  0.09345740    -0.44100
N816        N  0.53082879  0.30353439  0.91107053    -0.44100
C817        C  0.83083137  0.32926776  0.98947869    -0.00500
C818        C  0.82496755  0.30234935  0.02760405    -0.12400
C819        C  0.83509891  0.25636558  0.02765386     0.01700
C820        C  0.85128867  0.23525107  0.98848556    -0.00600
C821        C  0.85974320  0.26321617  0.95115976    -0.12300
C822        C  0.85005425  0.30942642  0.95148596     0.01600
H823        H  0.81102879  0.31700456  0.05746062     0.14600
H824        H  0.87591403  0.25001978  0.92193509     0.14600
C825        C  0.86222907  0.33603290  0.91302149     0.36200
C826        C  0.82902020  0.23210489  0.06908273     0.36100
N827        N  0.87250214  0.35734942  0.88236636    -0.44100
N828        N  0.82401722  0.21298468  0.10242811    -0.44100
C829        C  0.86566125  0.63438196  0.98158997    -0.00500
C830        C  0.88024905  0.60062884  0.01207090    -0.12400
C831        C  0.86261380  0.55715083  0.01160216     0.01700
C832        C  0.83009590  0.54565651  0.97986387    -0.00600
C833        C  0.81582511  0.57851434  0.94907499    -0.12300
C834        C  0.83218128  0.62233317  0.95023570     0.01600
H835        H  0.90419741  0.60764673  0.03771778     0.14600
H836        H  0.78978202  0.57062322  0.92536771     0.14600
C837        C  0.81246037  0.65463414  0.91950360     0.36200
C838        C  0.87803597  0.52470160  0.04441158     0.36100
N839        N  0.79646222  0.68042342  0.89495763    -0.44100
N840        N  0.88951558  0.49806015  0.07046272    -0.44100
C841        C  0.58343297  0.59700463  0.98317085    -0.00500
C842        C  0.58650017  0.56552357  0.94889207    -0.12400
C843        C  0.61957081  0.53195319  0.94932239     0.01700
C844        C  0.65103169  0.52957519  0.98452809    -0.00600
C845        C  0.64770541  0.56069109  0.01908252    -0.12300
C846        C  0.61451822  0.59427707  0.01866521     0.01600
H847        H  0.56259849  0.56679798  0.92168455     0.14600
H848        H  0.67176548  0.55942234  0.04613969     0.14600
C849        C  0.61444488  0.62631274  0.05426742     0.36200
C850        C  0.61920454  0.49962359  0.91391305     0.36100
N851        N  0.61451829  0.65195944  0.08283940    -0.44100
N852        N  0.61869018  0.47369612  0.88559239    -0.44100
C853        C  0.39334845  0.59829469  0.98589988    -0.00500
C854        C  0.36532087  0.60028924  0.02334671    -0.12400
C855        C  0.33278675  0.56798920  0.03093645     0.01700
C856        C  0.32811440  0.53248824  0.00081362    -0.00600
C857        C  0.35558690  0.53092300  0.96292746    -0.12300
C858        C  0.38816450  0.56320391  0.95534362     0.01600
H859        H  0.36855993  0.62749620  0.04667516     0.14600
H860        H  0.35235347  0.50370232  0.93960653     0.14600
C861        C  0.41715810  0.55800459  0.91728403     0.36200
C862        C  0.30372554  0.57312967  0.06894006     0.36100
N863        N  0.44045521  0.55355829  0.88687972    -0.44100
N864        N  0.28036787  0.57739626  0.09931988    -0.44100
C865        C  0.28064545  0.79256080  0.95642322    -0.00500
C866        C  0.29750684  0.76929222  0.99432845    -0.12400
C867        C  0.34288022  0.75834564  0.99966632     0.01700
C868        C  0.37337808  0.76518035  0.96430926    -0.00600
C869        C  0.35604545  0.78329783  0.92415182    -0.12300
C870        C  0.31073297  0.79750101  0.91993726     0.01600
H871        H  0.27533076  0.76299895  0.02222131     0.14600
H872        H  0.37811491  0.78652239  0.89572252     0.14600
C873        C  0.29682016  0.81383577  0.87672732     0.36200
C874        C  0.35665170  0.74059987  0.04261874     0.36100
N875        N  0.28672044  0.82634432  0.84142185    -0.44100
N876        N  0.36739131  0.72711803  0.07738305    -0.44100
C877        C  0.59807291  0.76549676  0.96808351    -0.00500
C878        C  0.60688749  0.80538102  0.99024605    -0.12400
C879        C  0.65092614  0.82059622  0.99560503     0.01700
C880        C  0.68847190  0.79363320  0.98258400    -0.00600
C881        C  0.67898886  0.75405004  0.95935858    -0.12300
C882        C  0.63482524  0.74046608  0.95148910     0.01600
H883        H  0.57909191  0.82530585  0.00264676     0.14600
H884        H  0.70558168  0.73386483  0.94548636     0.14600
C885        C  0.62846401  0.69998063  0.92662558     0.36200
C886        C  0.65602537  0.86518396  0.01284515     0.36100
N887        N  0.62397917  0.66778754  0.90614765    -0.44100
N888        N  0.65965156  0.90118372  0.02607319    -0.44100
loop_ 
_geom_bond_atom_site_label_1 
_geom_bond_atom_site_label_2 
_geom_bond_distance 
_geom_bond_site_symmetry_2 
_ccdc_geom_bond_type 
O1            V9   1.917       .  S
O1           C11   1.270       .  A
O2            V9   1.901       .  S
O2           C12   1.265       .  A
O3            V9   1.917       .  S
O3           C13   1.268       .  A
O4            V9   1.894       .  S
O4           C14   1.264       .  A
O5           V10   1.902       .  S
O5           C14   1.265   1_554  A
O6           V10   1.907       .  S
O6           C13   1.268   1_554  A
O7           V10   1.890       .  S
O7           C12   1.262   1_554  A
O8           V10   1.905       .  S
O8           C11   1.265   1_554  A
V9           V10   2.083   1_556  T
C11         C877   1.497       .  S
C12         C853   1.477       .  S
C13         C868   1.510       .  S
C14         C841   1.484       .  S
C15          C16   1.487       .  S
C15          C21   1.521       .  S
C15          C19   1.522   1_556  S
C15         C829   1.561       .  S
C16          H23   1.078       .  S
C16          C17   1.384       .  D
C17          C18   1.600       .  S
C17         C336   1.550       .  S
C18          C22   1.574       .  S
C18          C20   1.585   1_556  S
C18          H24   1.109       .  S
C19          H25   1.079       .  S
C19          C20   1.385       .  D
C20         C359   1.552       .  S
C21          H26   1.083   1_556  S
C21          C22   1.382       .  D
C22          C34   1.546       .  S
C27          C28   1.528   1_556  S
C27          C33   1.510       .  S
C27          C31   1.497       .  S
C27         C880   1.561       .  S
C28          H35   1.082       .  S
C28          C29   1.381       .  D
C29          C30   1.561   1_554  S
C29         C272   1.529       .  S
C30          C34   1.604       .  S
C30          C32   1.578       .  S
C30          H36   1.109       .  S
C31          H37   1.083       .  S
C31          C32   1.372       .  D
C32         C181   1.528       .  S
C33          H38   1.075       .  S
C33          C34   1.384       .  D
O39          V47   1.911       .  S
O39          C49   1.268       .  A
O40          V47   1.902       .  S
O40          C50   1.265       .  A
O41          V47   1.891       .  S
O41          C51   1.262       .  A
O42          V47   1.901       .  S
O42          C52   1.265       .  A
O43          V48   1.904       .  S
O43          C52   1.267   1_554  A
O44          V48   1.904       .  S
O44          C51   1.266   1_554  A
O45          V48   1.892       .  S
O45          C50   1.262   1_554  A
O46          V48   1.901       .  S
O46          C49   1.265   1_554  A
V47          V48   2.085   1_556  T
C49         C832   1.493       .  S
C50         C805   1.476       .  S
C51         C844   1.483       .  S
C52         C817   1.494       .  S
C53          C54   1.501   1_554  S
C53          C59   1.529       .  S
C53          C57   1.489       .  S
C53         C796   1.571       .  S
C54          H61   1.072       .  S
C54          C55   1.393       .  D
C55          C56   1.582   1_556  S
C55         C184   1.546   1_545  S
C56          C60   1.583       .  S
C56          C58   1.596   1_545  S
C56          H62   1.109       .  S
C57          H63   1.086   1_545  S
C57          C58   1.382   1_545  D
C58         C269   1.551       .  S
C59          H64   1.075       .  S
C59          C60   1.384       .  D
C60          C72   1.556       .  S
C65          C66   1.519   1_556  S
C65          C71   1.518   1_556  S
C65          C69   1.511       .  S
C65         C820   1.548       .  S
C66          H73   1.085       .  S
C66          C67   1.371       .  D
C67          C68   1.572       .  S
C67         C436   1.548       .  S
C68          C72   1.595       .  S
C68          C70   1.612   1_554  S
C68          H74   1.109       .  S
C69          H75   1.081       .  S
C69          C70   1.367       .  D
C70         C409   1.539       .  S
C71          H76   1.075       .  S
C71          C72   1.388       .  D
O77          V85   1.906       .  S
O77          C87   1.266   1_556  A
O78          V85   1.889       .  S
O78          C88   1.262   1_556  A
O79          V85   1.895       .  S
O79          C89   1.263   1_556  A
O80          V85   1.903       .  S
O80          C90   1.267   1_556  A
O81          V86   1.912       .  S
O81          C90   1.266       .  A
O82          V86   1.892       .  S
O82          C89   1.263       .  A
O83          V86   1.896       .  S
O83          C88   1.264       .  A
O84          V86   1.919       .  S
O84          C87   1.271       .  A
V85          V86   2.084   1_556  T
C87         C793   1.506       .  S
C88         C769   1.473       .  S
C89         C808   1.475       .  S
C90         C784   1.492       .  S
C91          C92   1.520       .  S
C91          C97   1.520       .  S
C91          C95   1.528       .  S
C91         C757   1.550       .  S
C92          H99   1.083   1_554  S
C92          C93   1.385   1_554  D
C93          C94   1.579   1_556  S
C93         C412   1.555       .  S
C94          C98   1.584       .  S
C94          C96   1.586       .  S
C94         H100   1.110       .  S
C95         H101   1.080       .  S
C95          C96   1.368       .  D
C96         C433   1.527       .  S
C97         H102   1.086   1_554  S
C97          C98   1.377       .  D
C98         C110   1.541       .  S
C103        C104   1.482       .  S
C103        C109   1.513       .  S
C103        C107   1.531   1_554  S
C103        C781   1.553       .  S
C104        H111   1.084       .  S
C104        C105   1.356       .  D
C105        C106   1.577       .  S
C105        C248   1.517   1_545  S
C106        C110   1.599       .  S
C106        C108   1.542   1_554  S
C106        H112   1.110       .  S
C107        H113   1.083       .  S
C107        C108   1.380       .  D
C108        C219   1.523       .  S
C109        H114   1.085       .  S
C109        C110   1.404       .  D
C115        C116   1.504       .  S
C115        C121   1.496       .  S
C115        C119   1.527   1_554  S
C115        C748   1.550       .  S
C116        H123   1.080       .  S
C116        C117   1.360       .  D
C117        C118   1.599       .  S
C117        C362   1.522       .  S
C118        C122   1.614       .  S
C118        C120   1.555   1_554  S
C118        H124   1.109       .  S
C119        H125   1.080       .  S
C119        C120   1.373       .  D
C120        C333   1.537       .  S
C121        H126   1.085       .  S
C121        C122   1.389       .  D
C122        C134   1.561   1_554  S
C127        C128   1.520       .  S
C127        C133   1.489       .  S
C127        C131   1.556   1_556  S
C127        C865   1.567       .  S
C128        H135   1.077       .  S
C128        C129   1.374       .  D
C129        C130   1.620       .  S
C129        C222   1.563       .  S
C130        C134   1.620       .  S
C130        C132   1.528   1_556  S
C130        H136   1.110   1_556  S
C131        H137   1.085       .  S
C131        C132   1.375       .  D
C132        C245   1.532       .  S
C133        H138   1.082       .  S
C133        C134   1.383       .  D
O139        V147   1.894       .  S
O139        C149   1.263       .  A
O140        V147   1.888       .  S
O140        C150   1.261       .  A
O141        V147   1.904       .  S
O141        C151   1.267       .  A
O142        V147   1.915       .  S
O142        C152   1.268       .  A
O143        V148   1.893       .  S
O143        C152   1.264   1_556  A
O144        V148   1.886       .  S
O144        C151   1.261   1_556  A
O145        V148   1.897       .  S
O145        C150   1.265   1_556  A
O146        V148   1.901       .  S
O146        C149   1.267   1_556  A
V147        V148   2.084   1_554  T
C149        C745   1.485       .  S
C150        C772   1.473       .  S
C151        C856   1.477       .  S
C152        C760   1.495       .  S
O153        V161   1.913       .  S
O153        C163   1.272       .  A
O154        V161   1.910       .  S
O154        C164   1.267       .  A
O155        V161   1.888       .  S
O155        C165   1.261       .  A
O156        V161   1.902       .  S
O156        C166   1.264       .  A
O157        V162   1.917       .  S
O157        C166   1.271       .  A
O158        V162   1.906       .  S
O158        C165   1.268       .  A
O159        V162   1.886       .  S
O159        C164   1.262       .  A
O160        V162   1.905       .  S
O160        C163   1.264       .  A
V161        V162   2.083       .  T
C163        C721   1.506       .  S
C164        C709   1.482       .  S
C165        C697   1.481       .  S
C166        C733   1.502       .  S
C167        C168   1.549       .  S
C167        C173   1.496       .  S
C167        C171   1.504       .  S
C167        C685   1.564       .  S
C168        H175   1.085       .  S
C168        C169   1.386       .  D
C169        C170   1.517       .  S
C169        C400   1.530   1_565  S
C170        C174   1.602       .  S
C170        C172   1.607       .  S
C170        H176   1.110       .  S
C171        H177   1.082       .  S
C171        C172   1.376       .  D
C172        C321   1.542       .  S
C173        H178   1.085       .  S
C173        C174   1.381       .  D
C174        C186   1.545       .  S
C179        C180   1.527       .  S
C179        C185   1.489       .  S
C179        C183   1.525   1_565  S
C179        C724   1.553       .  S
C180        H187   1.085       .  S
C180        C181   1.367       .  D
C181        C182   1.551       .  S
C182        C186   1.598       .  S
C182        C184   1.611       .  S
C182        H188   1.110       .  S
C183        H189   1.085       .  S
C183        C184   1.383   1_545  D
C185        H190   1.079       .  S
C185        C186   1.384       .  D
O191        V199   1.909       .  S
O191        C201   1.268       .  A
O192        V199   1.902       .  S
O192        C202   1.265       .  A
O193        V199   1.885       .  S
O193        C203   1.262       .  A
O194        V199   1.897       .  S
O194        C204   1.265       .  A
O195        V200   1.916       .  S
O195        C204   1.269       .  A
O196        V200   1.905       .  S
O196        C203   1.266       .  A
O197        V200   1.897       .  S
O197        C202   1.265       .  A
O198        V200   1.918       .  S
O198        C201   1.268       .  A
V199        V200   2.082       .  T
C201        C688   1.503       .  S
C202        C661   1.489       .  S
C203        C700   1.481       .  S
C204        C673   1.505       .  S
C205        C206   1.528       .  S
C205        C211   1.507       .  S
C205        C209   1.500   1_565  S
C205        C649   1.560       .  S
C206        H213   1.080       .  S
C206        C207   1.387       .  D
C207        C208   1.541       .  S
C207        C324   1.540       .  S
C208        C212   1.594       .  S
C208        C210   1.598       .  S
C208        H214   1.110       .  S
C209        H215   1.081       .  S
C209        C210   1.367   1_545  D
C210        C397   1.533   1_565  S
C211        H216   1.084       .  S
C211        C212   1.384       .  D
C212        C224   1.529       .  S
C217        C218   1.489   1_565  S
C217        C223   1.518       .  S
C217        C221   1.536       .  S
C217        C736   1.563       .  S
C218        H225   1.077       .  S
C218        C219   1.370       .  D
C219        C220   1.593   1_545  S
C220        C224   1.570       .  S
C220        C222   1.573       .  S
C220        H226   1.110       .  S
C221        H227   1.080       .  S
C221        C222   1.399       .  D
C223        H228   1.083       .  S
C223        C224   1.378       .  D
O229        V237   1.910       .  S
O229        C239   1.266   1_545  A
O230        V237   1.888   1_565  S
O230        C240   1.262       .  A
O231        V237   1.900   1_565  S
O231        C241   1.265       .  A
O232        V237   1.919       .  S
O232        C242   1.269   1_545  A
O233        V238   1.900       .  S
O233        C242   1.265       .  A
O234        V238   1.891       .  S
O234        C241   1.262       .  A
O235        V238   1.908       .  S
O235        C240   1.266       .  A
O236        V238   1.916       .  S
O236        C239   1.270       .  A
V237        V238   2.084   1_545  T
C239        C640   1.501       .  S
C240        C712   1.483       .  S
C241        C625   1.474       .  S
C242        C652   1.494       .  S
C243        C244   1.513       .  S
C243        C249   1.512       .  S
C243        C247   1.520       .  S
C243        C613   1.562       .  S
C244        H251   1.083       .  S
C244        C245   1.384       .  D
C245        C246   1.606       .  S
C246        C250   1.588       .  S
C246        C248   1.539       .  S
C246        H252   1.110       .  S
C247        H253   1.085       .  S
C247        C248   1.373       .  D
C249        H254   1.084       .  S
C249        C250   1.383       .  D
C250        C262   1.557       .  S
C255        C256   1.489       .  S
C255        C261   1.512       .  S
C255        C259   1.544       .  S
C255        C637   1.569       .  S
C256        H263   1.087   1_565  S
C256        C257   1.369       .  D
C257        C258   1.607       .  S
C257        C424   1.556       .  S
C258        C262   1.614       .  S
C258        C260   1.522       .  S
C258        H264   1.110       .  S
C259        H265   1.077       .  S
C259        C260   1.383       .  D
C260        C371   1.528       .  S
C261        H266   1.081       .  S
C261        C262   1.391       .  D
C267        C268   1.525       .  S
C267        C273   1.484       .  S
C267        C271   1.523       .  S
C267        C604   1.552       .  S
C268        H275   1.084   1_565  S
C268        C269   1.381       .  D
C269        C270   1.600       .  S
C270        C274   1.615       .  S
C270        C272   1.558       .  S
C270        H276   1.109       .  S
C271        H277   1.080       .  S
C271        C272   1.364       .  D
C273        H278   1.084       .  S
C273        C274   1.388       .  D
C274        C286   1.559       .  S
C279        C280   1.493       .  S
C279        C285   1.537       .  S
C279        C283   1.541       .  S
C279        C676   1.558       .  S
C280        H287   1.080       .  S
C280        C281   1.365       .  D
C281        C282   1.593       .  S
C281        C374   1.529       .  S
C282        C286   1.597       .  S
C282        C284   1.561       .  S
C282        H288   1.109       .  S
C283        H289   1.082       .  S
C283        C284   1.378       .  D
C284        C421   1.533   1_565  S
C285        H290   1.084       .  S
C285        C286   1.388       .  D
O291        V299   1.898       .  S
O291        C301   1.263       .  A
O292        V299   1.881       .  S
O292        C302   1.259       .  A
O293        V299   1.918       .  S
O293        C303   1.269       .  A
O294        V299   1.927       .  S
O294        C304   1.275       .  A
O295        V300   1.902       .  S
O295        C304   1.263       .  A
O296        V300   1.879       .  S
O296        C303   1.261       .  A
O297        V300   1.908       .  S
O297        C302   1.267       .  A
O298        V300   1.914       .  S
O298        C301   1.271       .  A
V299        V300   2.080       .  T
C301        C601   1.503       .  S
C302        C628   1.470       .  S
C303        C664   1.488       .  S
C304        C616   1.511       .  S
O305        V313   1.916       .  S
O305        C315   1.269   1_655  A
O306        V313   1.910       .  S
O306        C316   1.266       .  A
O307        V313   1.889       .  S
O307        C317   1.262       .  A
O308        V313   1.901       .  S
O308        C318   1.265       .  A
O309        V314   1.918       .  S
O309        C318   1.271   1_455  A
O310        V314   1.903       .  S
O310        C317   1.265   1_455  A
O311        V314   1.884       .  S
O311        C316   1.262   1_455  A
O312        V314   1.908       .  S
O312        C315   1.265       .  A
V313        V314   2.084   1_655  T
C315        C589   1.495       .  S
C316        C565   1.478       .  S
C317        C553   1.473       .  S
C318        C577   1.510       .  S
C319        C320   1.535       .  S
C319        C325   1.515       .  S
C319        C323   1.514       .  S
C319        C541   1.561       .  S
C320        H327   1.088   1_455  S
C320        C321   1.388   1_455  D
C321        C322   1.552   1_655  S
C322        C326   1.588       .  S
C322        C324   1.603       .  S
C322        H328   1.110       .  S
C323        H329   1.076       .  S
C323        C324   1.368       .  D
C325        H330   1.080       .  S
C325        C326   1.385       .  D
C326        C338   1.551       .  S
C331        C332   1.512   1_655  S
C331        C337   1.512   1_655  S
C331        C335   1.541       .  S
C331        C580   1.561       .  S
C332        H339   1.082       .  S
C332        C333   1.368       .  D
C333        C334   1.579       .  S
C334        C338   1.604       .  S
C334        C336   1.585   1_455  S
C334        H340   1.109       .  S
C335        H341   1.084       .  S
C335        C336   1.383       .  D
C337        H342   1.081       .  S
C337        C338   1.384       .  D
O343        V351   1.912       .  S
O343        C353   1.270   1_655  A
O344        V351   1.905       .  S
O344        C354   1.264       .  A
O345        V351   1.902       .  S
O345        C355   1.266   1_655  A
O346        V351   1.887       .  S
O346        C356   1.260       .  A
O347        V352   1.897       .  S
O347        C356   1.264   1_455  A
O348        V352   1.909       .  S
O348        C355   1.266       .  A
O349        V352   1.887       .  S
O349        C354   1.263   1_455  A
O350        V352   1.901       .  S
O350        C353   1.264       .  A
V351        V352   2.087   1_655  T
C353        C532   1.496       .  S
C354        C568   1.472       .  S
C355        C544   1.492       .  S
C356        C517   1.462       .  S
C357        C358   1.516       .  S
C357        C363   1.508       .  S
C357        C361   1.560   1_655  S
C357        C505   1.591       .  S
C358        H365   1.088       .  S
C358        C359   1.383       .  D
C359        C360   1.595       .  S
C360        C364   1.603       .  S
C360        C362   1.510   1_655  S
C360        H366   1.110       .  S
C361        H367   1.078       .  S
C361        C362   1.384       .  D
C363        H368   1.081       .  S
C363        C364   1.391       .  D
C364        C376   1.546   1_655  S
C369        C370   1.509       .  S
C369        C375   1.503       .  S
C369        C373   1.535       .  S
C369        C529   1.556       .  S
C370        H377   1.077       .  S
C370        C371   1.371       .  D
C371        C372   1.603       .  S
C372        C376   1.596       .  S
C372        C374   1.537   1_455  S
C372        H378   1.110       .  S
C373        H379   1.080   1_455  S
C373        C374   1.376   1_455  D
C375        H380   1.084       .  S
C375        C376   1.380       .  D
O381        V389   1.924       .  S
O381        C391   1.271       .  A
O382        V389   1.894       .  S
O382        C392   1.262       .  A
O383        V389   1.930       .  S
O383        C393   1.272       .  A
O384        V389   1.896       .  S
O384        C394   1.264       .  A
O385        V390   1.909       .  S
O385        C394   1.265       .  A
O386        V390   1.921       .  S
O386        C393   1.270       .  A
O387        V390   1.889       .  S
O387        C392   1.263       .  A
O388        V390   1.907       .  S
O388        C391   1.267       .  A
V389        V390   2.085       .  T
C391        C496   1.505       .  S
C392        C520   1.468       .  S
C393        C508   1.519       .  S
C394        C484   1.481       .  S
C395        C396   1.535   1_655  S
C395        C401   1.512       .  S
C395        C399   1.502       .  S
C395        C469   1.562       .  S
C396        H403   1.085       .  S
C396        C397   1.379       .  D
C397        C398   1.536   1_455  S
C398        C402   1.592       .  S
C398        C400   1.613       .  S
C398        H404   1.110   1_545  S
C399        H405   1.082       .  S
C399        C400   1.366       .  D
C401        H406   1.085       .  S
C401        C402   1.395       .  D
C402        C414   1.560   1_655  S
C407        C408   1.538   1_455  S
C407        C413   1.510       .  S
C407        C411   1.477       .  S
C407        C592   1.563       .  S
C408        H415   1.079       .  S
C408        C409   1.390       .  D
C409        C410   1.534       .  S
C410        C414   1.620   1_655  S
C410        C412   1.609   1_655  S
C410        H416   1.110       .  S
C411        H417   1.078       .  S
C411        C412   1.370       .  D
C413        H418   1.079       .  S
C413        C414   1.382       .  D
C419        C420   1.501       .  S
C419        C425   1.523       .  S
C419        C423   1.529   1_655  S
C419        C457   1.561       .  S
C420        H427   1.080       .  S
C420        C421   1.380       .  D
C421        C422   1.587       .  S
C422        C426   1.578       .  S
C422        C424   1.580   1_645  S
C422        H428   1.110       .  S
C423        H429   1.081   1_545  S
C423        C424   1.393   1_545  D
C425        H430   1.084       .  S
C425        C426   1.376       .  D
C426        C438   1.542       .  S
C431        C432   1.527   1_655  S
C431        C437   1.512       .  S
C431        C435   1.490       .  S
C431        C493   1.571       .  S
C432        H439   1.080       .  S
C432        C433   1.387       .  D
C433        C434   1.544   1_455  S
C434        C438   1.596       .  S
C434        C436   1.590       .  S
C434        H440   1.110       .  S
C435        H441   1.082       .  S
C435        C436   1.374       .  D
C437        H442   1.079       .  S
C437        C438   1.393       .  D
O443        V451   1.914       .  S
O443        C453   1.268       .  A
O444        V451   1.896       .  S
O444        C454   1.264       .  A
O445        V451   1.895       .  S
O445        C455   1.265       .  A
O446        V451   1.914       .  S
O446        C456   1.268       .  A
O447        V452   1.912   1_655  S
O447        C456   1.270       .  A
O448        V452   1.908       .  S
O448        C455   1.266   1_455  A
O449        V452   1.897       .  S
O449        C454   1.263   1_455  A
O450        V452   1.911   1_655  S
O450        C453   1.267       .  A
V451        V452   2.081   1_655  T
C453        C460   1.493       .  S
C454        C556   1.469       .  S
C455        C481   1.482       .  S
C456        C472   1.504       .  S
C457        C458   1.413       .  A
C457        C462   1.425       .  A
C458        C459   1.404       .  A
C458        H463   1.083       .  S
C459        C460   1.413       .  A
C459        C466   1.444       .  S
C460        C461   1.401       .  A
C461        C462   1.413       .  A
C461        H464   1.085       .  S
C462        C465   1.438   1_545  S
C465        N467   1.156       .  T
C466        N468   1.157       .  T
C469        C470   1.420       .  A
C469        C474   1.425       .  A
C470        C471   1.416       .  A
C470        H475   1.078       .  S
C471        C472   1.413       .  A
C471        C478   1.443       .  S
C472        C473   1.404       .  A
C473        C474   1.405       .  A
C473        H476   1.085   1_655  S
C474        C477   1.444   1_655  S
C477        N479   1.157       .  T
C478        N480   1.157       .  T
C481        C482   1.403       .  A
C481        C486   1.413   1_655  A
C482        C483   1.397       .  A
C482        H487   1.085       .  S
C483        C484   1.411       .  A
C483        C490   1.444       .  S
C484        C485   1.406   1_655  A
C485        C486   1.406       .  A
C485        H488   1.085       .  S
C486        C489   1.444       .  S
C489        N491   1.157       .  T
C490        N492   1.157       .  T
C493        C494   1.412       .  A
C493        C498   1.433       .  A
C494        C495   1.418       .  A
C494        H499   1.080       .  S
C495        C496   1.421       .  A
C495        C502   1.442       .  S
C496        C497   1.395       .  A
C497        C498   1.407       .  A
C497        H500   1.085       .  S
C498        C501   1.439       .  S
C501        N503   1.155   1_655  T
C502        N504   1.157       .  T
C505        C506   1.426       .  A
C505        C510   1.425       .  A
C506        C507   1.412       .  A
C506        H511   1.081       .  S
C507        C508   1.406       .  A
C507        C514   1.444       .  S
C508        C509   1.416       .  A
C509        C510   1.427       .  A
C509        H512   1.084       .  S
C510        C513   1.441       .  S
C513        N515   1.157       .  T
C514        N516   1.157       .  T
C517        C518   1.400   1_655  A
C517        C522   1.409       .  A
C518        C519   1.395       .  A
C518        H523   1.085       .  S
C519        C520   1.411   1_455  A
C519        C526   1.445       .  S
C520        C521   1.403       .  A
C521        C522   1.398       .  A
C521        H524   1.084       .  S
C522        C525   1.445       .  S
C525        N527   1.157       .  T
C526        N528   1.157       .  T
C529        C530   1.415       .  A
C529        C534   1.428       .  A
C530        C531   1.400   1_455  A
C530        H535   1.085   1_455  S
C531        C532   1.412   1_655  A
C531        C538   1.445       .  S
C532        C533   1.405       .  A
C533        C534   1.414       .  A
C533        H536   1.085       .  S
C534        C537   1.439       .  S
C537        N539   1.158       .  T
C538        N540   1.157       .  T
C541        C542   1.414       .  A
C541        C546   1.431       .  A
C542        C543   1.399   1_455  A
C542        H547   1.084   1_455  S
C543        C544   1.412   1_655  A
C543        C550   1.445       .  S
C544        C545   1.400       .  A
C545        C546   1.412       .  A
C545        H548   1.085       .  S
C546        C549   1.438       .  S
C549        N551   1.157       .  T
C550        N552   1.157       .  T
C553        C554   1.403   1_655  A
C553        C558   1.414       .  A
C554        C555   1.401       .  A
C554        H559   1.085       .  S
C555        C556   1.411   1_455  A
C555        C562   1.444       .  S
C556        C557   1.400       .  A
C557        C558   1.396       .  A
C557        H560   1.085       .  S
C558        C561   1.445       .  S
C561        N563   1.157       .  T
C562        N564   1.157       .  T
C565        C566   1.404   1_655  A
C565        C570   1.413       .  A
C566        C567   1.392       .  A
C566        H571   1.085       .  S
C567        C568   1.408   1_455  A
C567        C574   1.446       .  S
C568        C569   1.405       .  A
C569        C570   1.406       .  A
C569        H572   1.084       .  S
C570        C573   1.443       .  S
C573        N575   1.157       .  T
C574        N576   1.157       .  T
C577        C578   1.406   1_655  A
C577        C582   1.419       .  A
C578        C579   1.410       .  A
C578        H583   1.084       .  S
C579        C580   1.426   1_455  A
C579        C586   1.443       .  S
C580        C581   1.413       .  A
C581        C582   1.409       .  A
C581        H584   1.078       .  S
C582        C585   1.445       .  S
C585        N587   1.157       .  T
C586        N588   1.157       .  T
C589        C590   1.394   1_455  A
C589        C594   1.419       .  A
C590        C591   1.405       .  A
C590        H595   1.085       .  S
C591        C592   1.432   1_655  A
C591        C598   1.440       .  S
C592        C593   1.410       .  A
C593        C594   1.412       .  A
C593        H596   1.079       .  S
C594        C597   1.443       .  S
C597        N599   1.157       .  T
C598        N600   1.155       .  T
C601        C602   1.404       .  A
C601        C606   1.417       .  A
C602        C603   1.403       .  A
C602        H607   1.085       .  S
C603        C604   1.426       .  A
C603        C610   1.445       .  S
C604        C605   1.414       .  A
C605        C606   1.411       .  A
C605        H608   1.077       .  S
C606        C609   1.444   1_565  S
C609        N611   1.157       .  T
C610        N612   1.157       .  T
C613        C614   1.412       .  A
C613        C618   1.430       .  A
C614        C615   1.419       .  A
C614        H619   1.081       .  S
C615        C616   1.423       .  A
C615        C622   1.443       .  S
C616        C617   1.401       .  A
C617        C618   1.404       .  A
C617        H620   1.085       .  S
C618        C621   1.446       .  S
C621        N623   1.157   1_565  T
C622        N624   1.157       .  T
C625        C626   1.406       .  A
C625        C630   1.410       .  A
C626        C627   1.399       .  A
C626        H631   1.085       .  S
C627        C628   1.407       .  A
C627        C634   1.444       .  S
C628        C629   1.405       .  A
C629        C630   1.397       .  A
C629        H632   1.085       .  S
C630        C633   1.445   1_565  S
C633        N635   1.158       .  T
C634        N636   1.157       .  T
C637        C638   1.412       .  A
C637        C642   1.436       .  A
C638        C639   1.418       .  A
C638        H643   1.081   1_565  S
C639        C640   1.420       .  A
C639        C646   1.444   1_565  S
C640        C641   1.393       .  A
C641        C642   1.404       .  A
C641        H644   1.085       .  S
C642        C645   1.441       .  S
C645        N647   1.156       .  T
C646        N648   1.157       .  T
C649        C650   1.425   1_565  A
C649        C654   1.421       .  A
C650        C651   1.414       .  A
C650        H655   1.079       .  S
C651        C652   1.405   1_545  A
C651        C658   1.443       .  S
C652        C653   1.405       .  A
C653        C654   1.404       .  A
C653        H656   1.085       .  S
C654        C657   1.445       .  S
C657        N659   1.157       .  T
C658        N660   1.157       .  T
C661        C662   1.410       .  A
C661        C666   1.414       .  A
C662        C663   1.405       .  A
C662        H667   1.084       .  S
C663        C664   1.413       .  A
C663        C670   1.443   1_565  S
C664        C665   1.407       .  A
C665        C666   1.395       .  A
C665        H668   1.085       .  S
C666        C669   1.445       .  S
C669        N671   1.157       .  T
C670        N672   1.157       .  T
C673        C674   1.411       .  A
C673        C678   1.413       .  A
C674        C675   1.415       .  A
C674        H679   1.084       .  S
C675        C676   1.422       .  A
C675        C682   1.441       .  S
C676        C677   1.417       .  A
C677        C678   1.400       .  A
C677        H680   1.080       .  S
C678        C681   1.446       .  S
C681        N683   1.158   1_565  T
C682        N684   1.157       .  T
C685        C686   1.420       .  A
C685        C690   1.428       .  A
C686        C687   1.419       .  A
C686        H691   1.078       .  S
C687        C688   1.412       .  A
C687        C694   1.442       .  S
C688        C689   1.402       .  A
C689        C690   1.404       .  A
C689        H692   1.085       .  S
C690        C693   1.446       .  S
C693        N695   1.157       .  T
C694        N696   1.157       .  T
C697        C698   1.408       .  A
C697        C702   1.411       .  A
C698        C699   1.401       .  A
C698        H703   1.085       .  S
C699        C700   1.413       .  A
C699        C706   1.445       .  S
C700        C701   1.406       .  A
C701        C702   1.396       .  A
C701        H704   1.085       .  S
C702        C705   1.444   1_565  S
C705        N707   1.157       .  T
C706        N708   1.158       .  T
C709        C710   1.403       .  A
C709        C714   1.413       .  A
C710        C711   1.395       .  A
C710        H715   1.085   1_565  S
C711        C712   1.415       .  A
C711        C718   1.446   1_565  S
C712        C713   1.406       .  A
C713        C714   1.404       .  A
C713        H716   1.084       .  S
C714        C717   1.443       .  S
C717        N719   1.157       .  T
C718        N720   1.157       .  T
C721        C722   1.401       .  A
C721        C726   1.422   1_565  A
C722        C723   1.399       .  A
C722        H727   1.085       .  S
C723        C724   1.429       .  A
C723        C730   1.447       .  S
C724        C725   1.410   1_565  A
C725        C726   1.417       .  A
C725        H728   1.081       .  S
C726        C729   1.442       .  S
C729        N731   1.157       .  T
C730        N732   1.158       .  T
C733        C734   1.403       .  A
C733        C738   1.416       .  A
C734        C735   1.405       .  A
C734        H739   1.085   1_565  S
C735        C736   1.428       .  A
C735        C742   1.446   1_565  S
C736        C737   1.415       .  A
C737        C738   1.412       .  A
C737        H740   1.078       .  S
C738        C741   1.444       .  S
C741        N743   1.157       .  T
C742        N744   1.157       .  T
C745        C746   1.403   1_554  A
C745        C750   1.409       .  A
C746        C747   1.400       .  A
C746        H751   1.085       .  S
C747        C748   1.423   1_556  A
C747        C754   1.444       .  S
C748        C749   1.418       .  A
C749        C750   1.404       .  A
C749        H752   1.077       .  S
C750        C753   1.445       .  S
C753        N755   1.157       .  T
C754        N756   1.157       .  T
C757        C758   1.418       .  A
C757        C762   1.422   1_554  A
C758        C759   1.407       .  A
C758        H763   1.078       .  S
C759        C760   1.411       .  A
C759        C766   1.444       .  S
C760        C761   1.404   1_554  A
C761        C762   1.400       .  A
C761        H764   1.085       .  S
C762        C765   1.444       .  S
C765        N767   1.158       .  T
C766        N768   1.157       .  T
C769        C770   1.404   1_554  A
C769        C774   1.412       .  A
C770        C771   1.395       .  A
C770        H775   1.085       .  S
C771        C772   1.409   1_556  A
C771        C778   1.444       .  S
C772        C773   1.405       .  A
C773        C774   1.398       .  A
C773        H776   1.085       .  S
C774        C777   1.445       .  S
C777        N779   1.158       .  T
C778        N780   1.157       .  T
C781        C782   1.407       .  A
C781        C786   1.436       .  A
C782        C783   1.418       .  A
C782        H787   1.082       .  S
C783        C784   1.422       .  A
C783        C790   1.442       .  S
C784        C785   1.389       .  A
C785        C786   1.396       .  A
C785        H788   1.086       .  S
C786        C789   1.445   1_554  S
C789        N791   1.157   1_545  T
C790        N792   1.157       .  T
C793        C794   1.405       .  A
C793        C798   1.413   1_554  A
C794        C795   1.410       .  A
C794        H799   1.084       .  S
C795        C796   1.426       .  A
C795        C802   1.444       .  S
C796        C797   1.420   1_554  A
C797        C798   1.411       .  A
C797        H800   1.078       .  S
C798        C801   1.444       .  S
C801        N803   1.157       .  T
C802        N804   1.157       .  T
C805        C806   1.402       .  A
C805        C810   1.414   1_556  A
C806        C807   1.399       .  A
C806        H811   1.085       .  S
C807        C808   1.414   1_556  A
C807        C814   1.445       .  S
C808        C809   1.402       .  A
C809        C810   1.397       .  A
C809        H812   1.085       .  S
C810        C813   1.444       .  S
C813        N815   1.157       .  T
C814        N816   1.157       .  T
C817        C818   1.404   1_556  A
C817        C822   1.412       .  A
C818        C819   1.402       .  A
C818        H823   1.084       .  S
C819        C820   1.424   1_554  A
C819        C826   1.445       .  S
C820        C821   1.415       .  A
C821        C822   1.406       .  A
C821        H824   1.079       .  S
C822        C825   1.444       .  S
C825        N827   1.157       .  T
C826        N828   1.158       .  T
C829        C830   1.417   1_556  A
C829        C834   1.427       .  A
C830        C831   1.409       .  A
C830        H835   1.076       .  S
C831        C832   1.410   1_554  A
C831        C838   1.444       .  S
C832        C833   1.401       .  A
C833        C834   1.405       .  A
C833        H836   1.085       .  S
C834        C837   1.446       .  S
C837        N839   1.157       .  T
C838        N840   1.157       .  T
C841        C842   1.405       .  A
C841        C846   1.414   1_556  A
C842        C843   1.398       .  A
C842        H847   1.085       .  S
C843        C844   1.415       .  A
C843        C850   1.445       .  S
C844        C845   1.404   1_556  A
C845        C846   1.401       .  A
C845        H848   1.085       .  S
C846        C849   1.444       .  S
C849        N851   1.157       .  T
C850        N852   1.158       .  T
C853        C854   1.405   1_556  A
C853        C858   1.412       .  A
C854        C855   1.398       .  A
C854        H859   1.085       .  S
C855        C856   1.411       .  A
C855        C862   1.444       .  S
C856        C857   1.406   1_554  A
C857        C858   1.398       .  A
C857        H860   1.085       .  S
C858        C861   1.445       .  S
C861        N863   1.157       .  T
C862        N864   1.157       .  T
C865        C866   1.415       .  A
C865        C870   1.427       .  A
C866        C867   1.400       .  A
C866        H871   1.086   1_556  S
C867        C868   1.416       .  A
C867        C874   1.445   1_556  S
C868        C869   1.410       .  A
C869        C870   1.420       .  A
C869        H872   1.084       .  S
C870        C873   1.439       .  S
C873        N875   1.158       .  T
C874        N876   1.157       .  T
C877        C878   1.400       .  A
C877        C882   1.416       .  A
C878        C879   1.410       .  A
C878        H883   1.085   1_556  S
C879        C880   1.431       .  A
C879        C886   1.445   1_556  S
C880        C881   1.412       .  A
C881        C882   1.409       .  A
C881        H884   1.079       .  S
C882        C885   1.444       .  S
C885        N887   1.157       .  T
C886        N888   1.157       .  T
