geometry optimzed in LAMMPS
_audit_creation_date              2020-11-30 
_audit_creation_method            'lammps2cif' 
_symmetry_space_group_name_H-M    'P1' 
_symmetry_Int_Tables_number       1 
_symmetry_cell_setting            triclinic 
loop_ 
_symmetry_equiv_pos_as_xyz 
  x,y,z 
_cell_length_a                    30.43888267 
_cell_length_b                    30.42687441843989 
_cell_length_c                    25.179093430795803 
_cell_angle_alpha                 90.50725146490454 
_cell_angle_beta                  89.76878553449254 
_cell_angle_gamma                 89.99615705996113 
loop_ 
_atom_site_label 
_atom_site_type_symbol 
_atom_site_fract_x 
_atom_site_fract_y 
_atom_site_fract_z 
_atom_site_charge 
N1          N  0.45423426  0.82846523  0.06305738    -0.36300
N2          N  0.54840781  0.81654578  0.07020159    -0.56800
N3          N  0.55671312  0.83987765  0.95785296    -0.36300
N4          N  0.46215178  0.84814930  0.95095264    -0.56800
C5          C  0.45758189  0.80879207  0.11087423     0.27300
C6          C  0.41197931  0.82434922  0.04732831     0.27300
C7          C  0.59780180  0.82555733  0.96859479     0.27300
C8          C  0.55159340  0.83830745  0.90432855     0.27300
C9          C  0.53821138  0.81456713  0.12247616     0.35900
C10         C  0.59253926  0.82080278  0.06734880     0.35900
C11         C  0.41906890  0.85767521  0.95788064     0.35900
C12         C  0.47297095  0.86062809  0.90115030     0.35900
C13         C  0.41709796  0.79220065  0.12589851    -0.21600
C14         C  0.38851850  0.80106192  0.08521782    -0.21600
C15         C  0.61940586  0.81578208  0.92132048    -0.21600
C16         C  0.59002862  0.82304928  0.88093628    -0.21600
C17         C  0.57602009  0.81668626  0.15283845    -0.22600
C18         C  0.61049473  0.81982827  0.11785933    -0.22600
C19         C  0.40260447  0.87703711  0.91247344    -0.22600
C20         C  0.43651535  0.87818192  0.87632493    -0.22600
C21         C  0.49542439  0.80854268  0.14304503    -0.18000
C22         C  0.39334952  0.84395557  0.00182767    -0.18000
C23         C  0.51380440  0.85182295  0.87593027    -0.18000
C24         C  0.61707463  0.82333196  0.01970482    -0.18000
H25         H  0.40892505  0.77573837  0.16255249     0.14900
H26         H  0.35393272  0.79282579  0.08463121     0.14900
H27         H  0.65280611  0.80430098  0.91624703     0.14900
H28         H  0.59655460  0.81834501  0.83898232     0.14900
H29         H  0.57859309  0.81511874  0.19564642     0.13200
H30         H  0.64489073  0.82121800  0.12846897     0.13200
H31         H  0.36916878  0.88738640  0.90518454     0.13200
H32         H  0.43413463  0.88920731  0.83580521     0.13200
H33         H  0.47784005  0.84853919  0.04576179     0.26500
H34         H  0.53529216  0.85403811  0.98529953     0.26500
N35         N  0.53977897  0.82605909  0.44713989    -0.36300
N36         N  0.54645721  0.83901958  0.56198146    -0.56800
N37         N  0.45136218  0.83459867  0.56994455    -0.36300
N38         N  0.44502920  0.82499099  0.45477423    -0.56800
C39         C  0.58259800  0.83717017  0.45188266     0.27300
C40         C  0.52908446  0.83000468  0.39525236     0.27300
C41         C  0.46189708  0.84902631  0.61942206     0.27300
C42         C  0.40806257  0.84286756  0.56229881     0.27300
C43         C  0.58932983  0.83202734  0.55022933     0.35900
C44         C  0.54262592  0.83632760  0.61544221     0.35900
C45         C  0.44949102  0.81304403  0.40314758     0.35900
C46         C  0.40264392  0.81759409  0.46803461     0.35900
C47         C  0.59939677  0.84817608  0.40246557    -0.21600
C48         C  0.56569429  0.84343589  0.36668976    -0.21600
C49         C  0.42481396  0.86674350  0.64356340    -0.21600
C50         C  0.39090993  0.86298732  0.60749496    -0.21600
C51         C  0.61296069  0.82562231  0.59644611    -0.22600
C52         C  0.58338076  0.82819610  0.63772903    -0.22600
C53         C  0.40976087  0.79814760  0.38337614    -0.22600
C54         C  0.38007915  0.80090504  0.42451156    -0.22600
C55         C  0.60787969  0.83371694  0.49862810    -0.18000
C56         C  0.48794549  0.81925426  0.37254551    -0.18000
C57         C  0.38314245  0.82955289  0.51724589    -0.18000
C58         C  0.50325758  0.84344453  0.64454683    -0.18000
H59         H  0.63276729  0.85766701  0.39296736     0.14900
H60         H  0.56807226  0.84877988  0.32433290     0.14900
H61         H  0.42230882  0.88024773  0.68337970     0.14900
H62         H  0.35719276  0.87287090  0.61430082     0.14900
H63         H  0.64790946  0.81987316  0.60005901     0.13200
H64         H  0.59111893  0.82478417  0.67940273     0.13200
H65         H  0.40271245  0.78730832  0.34324930     0.13200
H66         H  0.34559174  0.79245815  0.42227876     0.13200
H67         H  0.52071559  0.81143721  0.47636775     0.26500
H68         H  0.47116096  0.81520669  0.54552108     0.26500
N69         N  0.88365842  0.38411441  0.04690184    -0.36300
N70         N  0.89567253  0.38936669  0.93260436    -0.56800
N71         N  0.91059435  0.48439344  0.94331160    -0.36300
N72         N  0.89376869  0.47865739  0.05748085    -0.56800
C73         C  0.87033150  0.34358019  0.03148539     0.27300
C74         C  0.86933283  0.39049709  0.09732376     0.27300
C75         C  0.91104110  0.48067635  0.88961078     0.27300
C76         C  0.90982723  0.52781215  0.95586183     0.27300
C77         C  0.89604471  0.34506222  0.93756747     0.35900
C78         C  0.90820609  0.39832867  0.88220536     0.35900
C79         C  0.89199439  0.46843675  0.10953233     0.35900
C80         C  0.90308764  0.52198227  0.05502204     0.35900
C81         C  0.84686756  0.32419562  0.07243311    -0.21600
C82         C  0.84650638  0.35374065  0.11415287    -0.21600
C83         C  0.91267697  0.52238650  0.86783562    -0.21600
C84         C  0.91266856  0.55195216  0.90946225    -0.21600
C85         C  0.90876438  0.32569959  0.88991595    -0.22600
C86         C  0.91616639  0.35937767  0.85479281    -0.22600
C87         C  0.90030793  0.50540270  0.14040504    -0.22600
C88         C  0.90657096  0.53943453  0.10596797    -0.22600
C89         C  0.88272937  0.32198066  0.98370620    -0.18000
C90         C  0.87931572  0.42719441  0.12979939    -0.18000
C91         C  0.90590499  0.54660801  0.00768649    -0.18000
C92         C  0.91005063  0.44089024  0.85943611    -0.18000
H93         H  0.83276408  0.29154442  0.07278769     0.14900
H94         H  0.83186342  0.34846208  0.15281730     0.14900
H95         H  0.91351507  0.53088771  0.82621227     0.14900
H96         H  0.91344019  0.58735950  0.90577926     0.14900
H97         H  0.91173600  0.29095697  0.88107211     0.13200
H98         H  0.92608529  0.35566128  0.81366278     0.13200
H99         H  0.90045043  0.50798129  0.18331292     0.13200
H100        H  0.91267373  0.57316064  0.11759353     0.13200
H101        H  0.90668562  0.40334304  0.02733730     0.26500
H102        H  0.91181254  0.45875856  0.96981873     0.26500
N103        N  0.90079526  0.49282088  0.54719651    -0.36300
N104        N  0.88406947  0.48702273  0.43312357    -0.56800
N105        N  0.89090513  0.39201546  0.43844382    -0.36300
N106        N  0.90389875  0.39720537  0.55246341    -0.56800
C107        C  0.89206116  0.53560435  0.53711787     0.27300
C108        C  0.89999913  0.48758345  0.60064266     0.27300
C109        C  0.87374962  0.39683020  0.38941945     0.27300
C110        C  0.88509596  0.34954847  0.45196844     0.27300
C111        C  0.88937650  0.53101063  0.43748213     0.35900
C112        C  0.88409329  0.47731735  0.38056284     0.35900
C113        C  0.91431514  0.40663474  0.60343731     0.35900
C114        C  0.91172086  0.35383177  0.54510907     0.35900
C115        C  0.88744724  0.55811822  0.58503760    -0.21600
C116        C  0.89159470  0.52779090  0.62488970    -0.21600
C117        C  0.85709204  0.35704219  0.37146348    -0.21600
C118        C  0.86397069  0.32721877  0.41112700    -0.21600
C119        C  0.89174573  0.54928176  0.38713860    -0.22600
C120        C  0.88929943  0.51522205  0.35126407    -0.22600
C121        C  0.92846134  0.36892246  0.62874233    -0.22600
C122        C  0.92724787  0.33558344  0.59165540    -0.22600
C123        C  0.88934376  0.55519469  0.48602348    -0.18000
C124        C  0.90895779  0.44817190  0.62845284    -0.18000
C125        C  0.90095382  0.32973020  0.49862883    -0.18000
C126        C  0.87603052  0.43519003  0.35863975    -0.18000
H127        H  0.88206715  0.59292314  0.59107549     0.14900
H128        H  0.88981525  0.53485663  0.66705193     0.14900
H129        H  0.84199922  0.35013345  0.33344183     0.14900
H130        H  0.85508833  0.29279081  0.40962773     0.14900
H131        H  0.89440605  0.58356874  0.37674554     0.13200
H132        H  0.88971011  0.51822935  0.30845802     0.13200
H133        H  0.93847371  0.36572103  0.66972923     0.13200
H134        H  0.93579087  0.30158897  0.59857163     0.13200
H135        H  0.91044826  0.46949617  0.51935082     0.26500
H136        H  0.91059035  0.41465573  0.45828908     0.26500
N137        N  0.44021968  0.06182016  0.05125414    -0.36300
N138        N  0.53371777  0.04351535  0.04730871    -0.56800
N139        N  0.53308458  0.05076807  0.93385421    -0.36300
N140        N  0.43984842  0.07365286  0.93739003    -0.56800
C141        C  0.45289763  0.07113459  0.10164920     0.27300
C142        C  0.40082391  0.08128802  0.04370049     0.27300
C143        C  0.57687465  0.05202817  0.94378069     0.27300
C144        C  0.52691104  0.06587454  0.88413424     0.27300
C145        C  0.52282396  0.03072006  0.09687585     0.35900
C146        C  0.57257557  0.02437877  0.03520641     0.35900
C147        C  0.39598553  0.07516814  0.94618986     0.35900
C148        C  0.44515337  0.07160997  0.88412290     0.35900
C149        C  0.42171419  0.09850773  0.12520281    -0.21600
C150        C  0.38797433  0.10314086  0.08950033    -0.21600
C151        C  0.59867757  0.06880117  0.90007339    -0.21600
C152        C  0.56740510  0.07637145  0.86195468    -0.21600
C153        C  0.55414422  0.00171818  0.11563639    -0.22600
C154        C  0.58624356  0.99856819  0.07696670    -0.22600
C155        C  0.37350422  0.07593514  0.89853463    -0.22600
C156        C  0.40470275  0.07440000  0.85919216    -0.22600
C157        C  0.48961320  0.05173526  0.12749048    -0.18000
C158        C  0.37601178  0.07864697  0.99666848    -0.18000
C159        C  0.48596941  0.06730400  0.85746135    -0.18000
C160        C  0.59751624  0.03442188  0.98934451    -0.18000
H161        H  0.42250504  0.11323948  0.16438336     0.14900
H162        H  0.35808077  0.12153669  0.09618328     0.14900
H163        H  0.63364764  0.07378341  0.89529367     0.14900
H164        H  0.57433107  0.08826990  0.82252623     0.14900
H165        H  0.55510764  0.98659664  0.15435296     0.13200
H166        H  0.61673902  0.98064916  0.07989205     0.13200
H167        H  0.33838126  0.07844012  0.89272312     0.13200
H168        H  0.39825636  0.07528633  0.81699091     0.13200
H169        H  0.45481616  0.03916618  0.02540414     0.26500
H170        H  0.50923560  0.03529937  0.95676123     0.26500
N171        N  0.54216890  0.05103884  0.55269774    -0.36300
N172        N  0.44805863  0.03927846  0.55108342    -0.56800
N173        N  0.45281667  0.03696272  0.43862591    -0.36300
N174        N  0.54648191  0.04701114  0.43790009    -0.56800
C175        C  0.53241841  0.04064216  0.60332786     0.27300
C176        C  0.58454276  0.03978699  0.54373959     0.27300
C177        C  0.41437450  0.01628225  0.44859787     0.27300
C178        C  0.46569794  0.02560725  0.38902631     0.27300
C179        C  0.45335849  0.05597807  0.60023184     0.35900
C180        C  0.40533100  0.04438259  0.53884815     0.35900
C181        C  0.58522743  0.06496974  0.45208099     0.35900
C182        C  0.53537337  0.06429118  0.39059980     0.35900
C183        C  0.56870221  0.02184014  0.62715671    -0.21600
C184        C  0.60154227  0.02054714  0.58910243    -0.21600
C185        C  0.40351013  0.98970144  0.40577941    -0.21600
C186        C  0.43612669  0.99554743  0.36826262    -0.21600
C187        C  0.41377800  0.07199085  0.61973556    -0.22600
C188        C  0.38323999  0.06510570  0.58027490    -0.22600
C189        C  0.59880431  0.09491672  0.41439876    -0.22600
C190        C  0.56667859  0.09511011  0.37567367    -0.22600
C191        C  0.49269470  0.05209907  0.62877098    -0.18000
C192        C  0.60843412  0.05190576  0.49764397    -0.18000
C193        C  0.49888071  0.04859527  0.36089612    -0.18000
C194        C  0.38674632  0.02668352  0.49217712    -0.18000
H195        H  0.57135373  0.01085990  0.66779331     0.14900
H196        H  0.63453358  0.00831130  0.59492709     0.14900
H197        H  0.37396546  0.97032055  0.40084346     0.14900
H198        H  0.43583913  0.98241069  0.32855788     0.14900
H199        H  0.40753162  0.08644789  0.65846622     0.13200
H200        H  0.34875573  0.07358800  0.58229780     0.13200
H201        H  0.62854710  0.11440128  0.41490796     0.13200
H202        H  0.56670354  0.11540446  0.34061938     0.13200
H203        H  0.52259020  0.07022711  0.52814586     0.26500
H204        H  0.46561646  0.06328575  0.46044303     0.26500
N205        N  0.11981080  0.38806504  0.94999032    -0.36300
N206        N  0.10408743  0.39191727  0.06458289    -0.56800
N207        N  0.10900850  0.48741791  0.06123666    -0.36300
N208        N  0.12937805  0.48288717  0.94693488    -0.56800
C209        C  0.12414791  0.34518933  0.96262288     0.27300
C210        C  0.13584998  0.39293411  0.90018944     0.27300
C211        C  0.10574842  0.48188425  0.11451441     0.27300
C212        C  0.11631999  0.53056210  0.05207093     0.27300
C213        C  0.09669407  0.34867540  0.05626617     0.35900
C214        C  0.09216791  0.40075514  0.11528851     0.35900
C215        C  0.13388018  0.47451298  0.89422854     0.35900
C216        C  0.12977292  0.52712259  0.95311300     0.35900
C217        C  0.14297714  0.32255177  0.92016242    -0.21600
C218        C  0.15039069  0.35269651  0.88081479    -0.21600
C219        C  0.11019854  0.52233636  0.13960672    -0.21600
C220        C  0.11618682  0.55301298  0.10040230    -0.21600
C221        C  0.07959449  0.32987449  0.10187036    -0.22600
C222        C  0.07718018  0.36279459  0.13945982    -0.22600
C223        C  0.13850558  0.51359979  0.86698848    -0.22600
C224        C  0.13710626  0.54671241  0.90430692    -0.22600
C225        C  0.10907052  0.32519693  0.00989808    -0.18000
C226        C  0.13541480  0.43208842  0.87040651    -0.18000
C227        C  0.12258670  0.55056986  0.00156322    -0.18000
C228        C  0.09784939  0.44171878  0.14140068    -0.18000
H229        H  0.15017219  0.28776200  0.91752310     0.14900
H230        H  0.16434399  0.34572572  0.84203883     0.14900
H231        H  0.10870829  0.52924124  0.18181495     0.14900
H232        H  0.12024143  0.58790994  0.10720036     0.14900
H233        H  0.07121332  0.29571217  0.10798225     0.13200
H234        H  0.06627110  0.35909296  0.18013741     0.13200
H235        H  0.14289223  0.51800193  0.82471305     0.13200
H236        H  0.13978186  0.58146518  0.89608119     0.13200
H237        H  0.10156441  0.41124889  0.97111122     0.26500
H238        H  0.10398164  0.46360342  0.03232269     0.26500
N239        N  0.10774862  0.48530459  0.45213144    -0.36300
N240        N  0.12971318  0.48232850  0.56465684    -0.56800
N241        N  0.12340012  0.38687291  0.56057764    -0.36300
N242        N  0.10488092  0.38987829  0.44773387    -0.56800
C243        C  0.11886668  0.52778075  0.46107631     0.27300
C244        C  0.10855872  0.47854593  0.39890502     0.27300
C245        C  0.14144802  0.39294628  0.60914982     0.27300
C246        C  0.12904829  0.34407414  0.54701600     0.27300
C247        C  0.12192370  0.52591862  0.56004265     0.35900
C248        C  0.13034642  0.47374117  0.61730520     0.35900
C249        C  0.09114553  0.39854193  0.39792370     0.35900
C250        C  0.09798747  0.34655522  0.45567978     0.35900
C251        C  0.12578138  0.54847219  0.41286181    -0.21600
C252        C  0.11992528  0.51730315  0.37375974    -0.21600
C253        C  0.15860812  0.35353226  0.62683292    -0.21600
C254        C  0.15121787  0.32277910  0.58737767    -0.21600
C255        C  0.11875716  0.54522627  0.61000783    -0.22600
C256        C  0.12357963  0.51212828  0.64622271    -0.22600
C257        C  0.07540932  0.36054390  0.37399506    -0.22600
C258        C  0.07960358  0.32762562  0.41065096    -0.22600
C259        C  0.12030188  0.54893329  0.51140787    -0.18000
C260        C  0.09665599  0.43924318  0.37209679    -0.18000
C261        C  0.11198835  0.32317483  0.50096463    -0.18000
C262        C  0.13936100  0.43218356  0.63968564    -0.18000
H263        H  0.13386053  0.58257469  0.40616547     0.14900
H264        H  0.12257482  0.52293399  0.33147951     0.14900
H265        H  0.17433093  0.34747488  0.66454644     0.14900
H266        H  0.16006933  0.28835838  0.58887719     0.14900
H267        H  0.11376681  0.57960180  0.61957125     0.13200
H268        H  0.12301550  0.51604539  0.68898881     0.13200
H269        H  0.06306023  0.35678951  0.33395197     0.13200
H270        H  0.07135815  0.29342096  0.40423294     0.13200
H271        H  0.09560504  0.46376110  0.48034554     0.26500
H272        H  0.10335411  0.40914474  0.54116628     0.26500
O273        O  0.82592990  0.81687619  0.97171729    -0.72600
O274        O  0.95815692  0.82233611  0.96501614    -0.73600
O275        O  0.89489800  0.75440733  0.97287874    -0.62200
O276        O  0.88831514  0.88560966  0.96316326    -0.70600
O277        O  0.89093708  0.89100892  0.05108261    -0.70200
O278        O  0.89827805  0.75903921  0.06085908    -0.61400
O279        O  0.96096650  0.82748018  0.05292232    -0.73900
O280        O  0.82879780  0.82216152  0.05969788    -0.72700
Cu281      Cu  0.89181840  0.81967479  0.96515915     1.04600
Cu282      Cu  0.89488878  0.82515288  0.05924700     1.04300
C283        C  0.80666865  0.81877507  0.01685507     0.93600
C284        C  0.98042317  0.82494705  0.00791345     0.92700
C285        C  0.89786123  0.73609034  0.01811472     0.84900
C286        C  0.88762933  0.90899456  0.00554379     0.91100
O287        O  0.81703749  0.83258708  0.52816582    -0.72600
O288        O  0.94822315  0.82690022  0.53281848    -0.73600
O289        O  0.88490316  0.89571949  0.53541903    -0.62200
O290        O  0.87997541  0.76390791  0.52440812    -0.70600
O291        O  0.88383212  0.76741364  0.43642528    -0.70200
O292        O  0.88660852  0.89900373  0.44736137    -0.61400
O293        O  0.95164496  0.83097914  0.44490994    -0.73900
O294        O  0.81875803  0.83508401  0.44002201    -0.72700
Cu295      Cu  0.88243518  0.82961871  0.53318801     1.04600
Cu296      Cu  0.88528259  0.83332333  0.43901532     1.04300
C297        C  0.79722220  0.83491472  0.48376001     0.93600
C298        C  0.97071450  0.82777181  0.48993713     0.92700
C299        C  0.88601469  0.91811844  0.49275303     0.84900
C300        C  0.88193535  0.74495124  0.47894351     0.91100
O301        O  0.94445798  0.04368034  0.95095745    -0.72600
O302        O  0.81098172  0.03753989  0.95079107    -0.73600
O303        O  0.87476864  0.10712712  0.94492388    -0.62200
O304        O  0.88142535  0.97497740  0.95605710    -0.70600
O305        O  0.88068564  0.98043650  0.04401346    -0.70200
O306        O  0.87580638  0.11254298  0.03273641    -0.61400
O307        O  0.81146793  0.04373206  0.03827662    -0.73900
O308        O  0.94365789  0.04828179  0.03895767    -0.72700
Cu309      Cu  0.87781642  0.04068885  0.94755800     1.04600
Cu310      Cu  0.87770710  0.04651846  0.04142943     1.04300
C311        C  0.96495262  0.04608993  0.99521934     0.93600
C312        C  0.79001817  0.03984551  0.99497211     0.92700
C313        C  0.87489347  0.13076722  0.98714726     0.84900
C314        C  0.88296626  0.95701127  0.00171999     0.91100
O315        O  0.88824181  0.11968504  0.45587813    -0.72600
O316        O  0.88522981  0.98805023  0.45230924    -0.73600
O317        O  0.82015844  0.05485296  0.45865144    -0.62200
O318        O  0.95251649  0.05244390  0.45101576    -0.70600
O319        O  0.95497215  0.05143706  0.53911031    -0.70200
O320        O  0.82282656  0.05331173  0.54632800    -0.61400
O321        O  0.88793081  0.98616992  0.54036349    -0.73900
O322        O  0.89021237  0.11858301  0.54389517    -0.72700
Cu323      Cu  0.88634257  0.05383947  0.45143080     1.04600
Cu324      Cu  0.88905377  0.05238898  0.54549994     1.04300
C325        C  0.88996212  0.13996180  0.50042338     0.93600
C326        C  0.88642290  0.96633330  0.49542428     0.92700
C327        C  0.80036919  0.05405870  0.50364573     0.84900
C328        C  0.97454046  0.05152860  0.49412819     0.91100
O329        O  0.16723503  0.05523669  0.95780816    -0.72600
O330        O  0.03525454  0.04672461  0.95287429    -0.73600
O331        O  0.09747713  0.11621711  0.95684451    -0.62200
O332        O  0.10573824  0.98425239  0.95466826    -0.70600
O333        O  0.10383796  0.98432255  0.04281971    -0.70200
O334        O  0.09626093  0.11553566  0.04507269    -0.61400
O335        O  0.03336370  0.04680616  0.04100046    -0.73900
O336        O  0.16569507  0.05480294  0.04601847    -0.72700
Cu337      Cu  0.10143396  0.05046529  0.95245198     1.04600
Cu338      Cu  0.09956245  0.05016543  0.04678769     1.04300
C339        C  0.18709042  0.05724677  0.00237270     0.93600
C340        C  0.01343229  0.04645157  0.99632329     0.92700
C341        C  0.09643695  0.13650785  0.00144644     0.84900
C342        C  0.10644800  0.96352632  0.99862181     0.91100
O343        O  0.17715101  0.04233736  0.52816649    -0.72600
O344        O  0.04484790  0.05007232  0.53516693    -0.73600
O345        O  0.10757703  0.98141197  0.53389570    -0.62200
O346        O  0.11386695  0.11243116  0.53125226    -0.70600
O347        O  0.11170185  0.11138785  0.44321886    -0.70200
O348        O  0.10485226  0.97877570  0.44579019    -0.61400
O349        O  0.04233338  0.04854550  0.44705838    -0.73900
O350        O  0.17395331  0.04045342  0.44050062    -0.72700
Cu351      Cu  0.11101070  0.04676047  0.53512164     1.04600
Cu352      Cu  0.10812271  0.04486843  0.44102930     1.04300
C353        C  0.19651179  0.03897811  0.48303353     0.93600
C354        C  0.02280629  0.05012215  0.49203136     0.92700
C355        C  0.10558526  0.95940419  0.49064855     0.84900
C356        C  0.11331646  0.13277892  0.48715699     0.91100
O357        O  0.18008528  0.83115956  0.95169036    -0.72600
O358        O  0.04806370  0.82472333  0.96010706    -0.73600
O359        O  0.11053012  0.89381890  0.95487169    -0.62200
O360        O  0.11750296  0.76136403  0.95737028    -0.70600
O361        O  0.12223458  0.76324896  0.04523906    -0.70200
O362        O  0.11310137  0.89528913  0.04296190    -0.61400
O363        O  0.05135052  0.82577131  0.04814565    -0.73900
O364        O  0.18354511  0.83389452  0.03942453    -0.72700
Cu365      Cu  0.11396079  0.82758758  0.95297467     1.04600
Cu366      Cu  0.11770483  0.82949976  0.04700598     1.04300
C367        C  0.20277635  0.83396922  0.99413140     0.93600
C368        C  0.02884995  0.82506307  0.00533182     0.92700
C369        C  0.11025440  0.91532372  0.99872015     0.84900
C370        C  0.12139935  0.74146332  0.00163843     0.91100
O371        O  0.16929013  0.82824031  0.55003637    -0.72600
O372        O  0.03732873  0.82749213  0.53864819    -0.73600
O373        O  0.10321744  0.76182628  0.55030954    -0.62200
O374        O  0.10315198  0.89307938  0.53869881    -0.70600
O375        O  0.10697286  0.88835811  0.45070868    -0.70200
O376        O  0.10997211  0.75664940  0.46261943    -0.61400
O377        O  0.04212201  0.82172495  0.45086064    -0.73900
O378        O  0.17431616  0.82480476  0.46218562    -0.72700
Cu379      Cu  0.10299622  0.82775626  0.54743839     1.04600
Cu380      Cu  0.10848263  0.82248097  0.45348980     1.04300
C381        C  0.19260177  0.82781129  0.50768554     0.93600
C382        C  0.01895081  0.82539152  0.49313252     0.92700
C383        C  0.10723042  0.73854179  0.50817358     0.84900
C384        C  0.10494878  0.91138508  0.49327572     0.91100
C385        C  0.07938935  0.61801231  0.52816658    -0.05500
C386        C  0.11912317  0.59791473  0.51303897     0.00500
C387        C  0.15567931  0.62460645  0.49938152    -0.08100
C388        C  0.14973854  0.67029646  0.49662748    -0.05500
C389        C  0.11018079  0.69026627  0.51198637     0.00500
C390        C  0.07499561  0.66401843  0.53041113    -0.08000
C391        C  0.03396492  0.68432294  0.55454117     0.62400
H392        H  0.05224720  0.59719750  0.54001101     0.13100
H393        H  0.17696229  0.69086370  0.48421548     0.13100
C394        C  0.20169059  0.60735815  0.48855607     0.62600
F395        F  0.00096708  0.65354461  0.56153383    -0.22600
F396        F  0.01803005  0.71699100  0.52238002    -0.19900
F397        F  0.04417202  0.70241333  0.60349740    -0.19600
F398        F  0.21411327  0.61802263  0.43736214    -0.19600
F399        F  0.20549167  0.56243013  0.49439012    -0.19900
F400        F  0.23050266  0.62719695  0.52372546    -0.22600
C401        C  0.08110195  0.20258514  0.51964588    -0.05500
C402        C  0.11300494  0.18150607  0.48801797     0.00500
C403        C  0.14481147  0.20703273  0.46106765    -0.08100
C404        C  0.14333277  0.25311319  0.46642302    -0.05500
C405        C  0.11159299  0.27412639  0.49828885     0.00500
C406        C  0.07975467  0.24864516  0.52532671    -0.08000
C407        C  0.04499957  0.26975704  0.56074575     0.62400
H408        H  0.05740081  0.18246876  0.54051174     0.13100
H409        H  0.16725634  0.27331845  0.44608377     0.13100
C410        C  0.18138724  0.18559909  0.42912204     0.62600
F411        F  0.01284218  0.23994514  0.57524095    -0.22600
F412        F  0.02471711  0.30395093  0.53470716    -0.19900
F413        F  0.06431147  0.28581393  0.60651906    -0.19600
F414        F  0.16391875  0.16271483  0.38649838    -0.19600
F415        F  0.20430888  0.15707385  0.46129912    -0.19900
F416        F  0.21079401  0.21616647  0.40944583    -0.22600
C417        C  0.08752805  0.66974420  0.98029962    -0.05500
C418        C  0.12319254  0.69274712  0.00212646     0.00500
C419        C  0.15908852  0.66898490  0.02333384    -0.08100
C420        C  0.15855850  0.62271488  0.02006545    -0.05500
C421        C  0.12228080  0.59972301  0.99961689     0.00500
C422        C  0.08572324  0.62349367  0.98015042    -0.08000
C423        C  0.04432801  0.60028004  0.96115501     0.62400
H424        H  0.06041263  0.68849865  0.96445307     0.13100
H425        H  0.18587555  0.60382370  0.03518627     0.13100
C426        C  0.19775669  0.69217606  0.04919080     0.62600
F427        F  0.01074408  0.62973213  0.95137083    -0.22600
F428        F  0.03011328  0.57117505  0.99937905    -0.19900
F429        F  0.05228472  0.57733227  0.91463910    -0.19600
F430        F  0.18374378  0.71477213  0.09399949    -0.19600
F431        F  0.21631547  0.72142817  0.01406011    -0.19900
F432        F  0.23007188  0.66289019  0.06444669    -0.22600
C433        C  0.13427398  0.20397040  0.02871936    -0.05500
C434        C  0.09816887  0.18468699  0.00320210     0.00500
C435        C  0.06522407  0.21131999  0.98071558    -0.08100
C436        C  0.06960531  0.25719516  0.98478635    -0.05500
C437        C  0.10586427  0.27653127  0.01010766     0.00500
C438        C  0.13915854  0.24976670  0.03193738    -0.08000
C439        C  0.17999625  0.26934074  0.05736314     0.62400
H440        H  0.15906268  0.18265152  0.04542413     0.13100
H441        H  0.04505933  0.27849713  0.96762253     0.13100
C442        C  0.02536556  0.19126502  0.95380375     0.62600
F443        F  0.20982341  0.23718645  0.07158622    -0.22600
F444        F  0.16861917  0.29269198  0.10265197    -0.19900
F445        F  0.20070208  0.29718303  0.02211918    -0.19600
F446        F  0.00433162  0.16315067  0.98847304    -0.19600
F447        F  0.03827220  0.16790970  0.90909269    -0.19900
F448        F  0.99561956  0.22301135  0.93821527    -0.22600
C449        C  0.17652643  0.44007035  0.78464187    -0.05500
C450        C  0.13754610  0.42831381  0.81106786     0.00500
C451        C  0.10063364  0.41456264  0.78091872    -0.08100
C452        C  0.10354312  0.41490016  0.72517170    -0.05500
C453        C  0.14163103  0.42875453  0.69878173     0.00500
C454        C  0.17922643  0.44062748  0.72866487    -0.08000
C455        C  0.22192805  0.45334030  0.70155202     0.62400
H456        H  0.20453138  0.44972737  0.80842217     0.13100
H457        H  0.07560547  0.40511915  0.70136508     0.13100
C458        C  0.05788626  0.40065491  0.80731181     0.62600
F459        F  0.21596848  0.49069980  0.67164886    -0.22600
F460        F  0.23575199  0.41942015  0.66863208    -0.19900
F461        F  0.25490999  0.46183276  0.73793910    -0.19600
F462        F  0.04351095  0.43338080  0.84164198    -0.19600
F463        F  0.06406923  0.36242189  0.83541442    -0.19900
F464        F  0.02515062  0.39262680  0.77048687    -0.22600
C465        C  0.05935231  0.45388004  0.22847798    -0.05500
C466        C  0.09779771  0.44189281  0.20081674     0.00500
C467        C  0.13578706  0.42980347  0.22962787    -0.08100
C468        C  0.13345661  0.42831668  0.28532602    -0.05500
C469        C  0.09504472  0.43980269  0.31291699     0.00500
C470        C  0.05749084  0.45347754  0.28451218    -0.08000
C471        C  0.01604028  0.46770286  0.31359701     0.62400
H472        H  0.03102870  0.46393968  0.20578491     0.13100
H473        H  0.16196828  0.41885451  0.30815151     0.13100
C474        C  0.17899460  0.41975653  0.20166264     0.62600
F475        F  0.98279513  0.47848930  0.27873864    -0.22600
F476        F  0.02459756  0.50424537  0.34483995    -0.19900
F477        F  0.00143257  0.43408138  0.34575831    -0.19600
F478        F  0.19157450  0.45544196  0.17156297    -0.19600
F479        F  0.17442961  0.38339831  0.16889873    -0.19900
F480        F  0.21233190  0.41112238  0.23734068    -0.22600
C481        C  0.31802566  0.04221939  0.44260239    -0.05500
C482        C  0.33785695  0.02282095  0.48688123     0.00500
C483        C  0.31055585  0.00343166  0.52601005    -0.08100
C484        C  0.26508288  0.01139886  0.52430743    -0.05500
C485        C  0.24515074  0.03217305  0.48083840     0.00500
C486        C  0.27208248  0.04432804  0.43694616    -0.08000
C487        C  0.25334610  0.05837627  0.38387574     0.62400
H488        H  0.33904500  0.05580458  0.41209751     0.13100
H489        H  0.24461798  0.99904511  0.55620140     0.13100
C490        C  0.32734120  0.97295678  0.56887691     0.62600
F491        F  0.28597254  0.06873088  0.34758976    -0.22600
F492        F  0.22705204  0.09494901  0.39032115    -0.19900
F493        F  0.22899688  0.02424781  0.36237460    -0.19600
F494        F  0.32520446  0.99382984  0.61778572    -0.19600
F495        F  0.36996603  0.95912392  0.55948920    -0.19900
F496        F  0.30114004  0.93587940  0.57073797    -0.22600
C497        C  0.72966786  0.03419570  0.46113607    -0.05500
C498        C  0.75120646  0.05300840  0.50512072     0.00500
C499        C  0.72517864  0.06875701  0.54839163    -0.08100
C500        C  0.67935738  0.07203993  0.54151081    -0.05500
C501        C  0.65782536  0.05234651  0.49807796     0.00500
C502        C  0.68361693  0.03028250  0.45895756    -0.08000
C503        C  0.66362339  0.99933336  0.41785512     0.62400
H504        H  0.74935383  0.01996019  0.42945610     0.13100
H505        H  0.65949517  0.08782932  0.57190644     0.13100
C506        C  0.74432158  0.07927687  0.60272269     0.62600
F507        F  0.69494882  0.97127399  0.39639057    -0.22600
F508        F  0.64553836  0.02279157  0.37672535    -0.19900
F509        F  0.63158989  0.97352298  0.44113713    -0.19600
F510        F  0.77468205  0.11263418  0.59931306    -0.19600
F511        F  0.76429840  0.04213052  0.62274138    -0.19900
F512        F  0.71233605  0.09232789  0.63882457    -0.22600
C513        C  0.25304012  0.10485238  0.00913103    -0.05500
C514        C  0.23528416  0.06251063  0.00309960     0.00500
C515        C  0.26351645  0.02635108  0.99461976    -0.08100
C516        C  0.30914651  0.03339840  0.99497861    -0.05500
C517        C  0.32719379  0.07570682  0.00033102     0.00500
C518        C  0.29867142  0.11244299  0.00577756    -0.08000
C519        C  0.31397868  0.15995147  0.00636646     0.62400
H520        H  0.23088985  0.13252135  0.01416375     0.13100
H521        H  0.33135544  0.00588623  0.98951252     0.13100
C522        C  0.24523037  0.98072462  0.98429621     0.62600
F523        F  0.30434702  0.17877634  0.05522978    -0.22600
F524        F  0.29188184  0.18291838  0.96752700    -0.19900
F525        F  0.35847461  0.16446019  0.99679592    -0.19600
F526        F  0.21934488  0.98104647  0.93930202    -0.19600
F527        F  0.22008038  0.96761048  0.02720107    -0.19900
F528        F  0.27831036  0.95026737  0.97613009    -0.22600
C529        C  0.66813504  0.05646359  0.03110990    -0.05500
C530        C  0.64697164  0.03142341  0.99160980     0.00500
C531        C  0.67337070  0.00765754  0.95437150    -0.08100
C532        C  0.71950644  0.01242163  0.95619809    -0.05500
C533        C  0.74069458  0.03745475  0.99582559     0.00500
C534        C  0.71431509  0.05933283  0.03472482    -0.08000
C535        C  0.73424792  0.08645819  0.07956041     0.62400
H536        H  0.64776780  0.07434640  0.05927102     0.13100
H537        H  0.73938333  0.99501511  0.92702393     0.13100
C538        C  0.65523062  0.97629603  0.91254652     0.62600
F539        F  0.70260971  0.10893988  0.10864412    -0.22600
F540        F  0.76311396  0.11717317  0.05918922    -0.19900
F541        F  0.75621176  0.05910732  0.11408669    -0.19600
F542        F  0.66286713  0.99329104  0.86260075    -0.19600
F543        F  0.61078043  0.96847849  0.91834658    -0.19900
F544        F  0.67658436  0.93627230  0.91589878    -0.22600
C545        C  0.50170075  0.09850595  0.76864880    -0.05500
C546        C  0.48589710  0.06307000  0.79854150     0.00500
C547        C  0.46988543  0.02486894  0.77189125    -0.08100
C548        C  0.47259675  0.02293514  0.71637313    -0.05500
C549        C  0.49129406  0.05702155  0.68716220     0.00500
C550        C  0.50540770  0.09583990  0.71310400    -0.08000
C551        C  0.52360984  0.13431421  0.68201462     0.62400
H552        H  0.51178077  0.12810956  0.78945846     0.13100
H553        H  0.46005692  0.99439035  0.69522842     0.13100
C554        C  0.44705056  0.98673142  0.79917232     0.62600
F555        F  0.53307129  0.16988004  0.71466791    -0.22600
F556        F  0.49321332  0.14768499  0.64480608    -0.19900
F557        F  0.56191824  0.12191972  0.65630399    -0.19600
F558        F  0.40208642  0.99164479  0.79452501    -0.19600
F559        F  0.45750837  0.98344400  0.85230261    -0.19900
F560        F  0.45872079  0.94767630  0.77456789    -0.22600
C561        C  0.53466323  0.05446851  0.26995868    -0.05500
C562        C  0.49598129  0.05386508  0.30112212     0.00500
C563        C  0.45536350  0.05691461  0.27336237    -0.08100
C564        C  0.45517457  0.04789726  0.21859767    -0.05500
C565        C  0.49324837  0.05366516  0.18746192     0.00500
C566        C  0.53322891  0.06222217  0.21493638    -0.08000
C567        C  0.57356867  0.08350421  0.19024571     0.62400
H568        H  0.56654147  0.05215374  0.28842367     0.13100
H569        H  0.42395006  0.04140144  0.19967161     0.13100
C570        C  0.41261113  0.07453169  0.29682473     0.62600
F571        F  0.58764999  0.11755599  0.22276890    -0.22600
F572        F  0.56508493  0.10146693  0.14111690    -0.19900
F573        F  0.60724891  0.05321643  0.18570413    -0.19600
F574        F  0.41742090  0.09120821  0.34766179    -0.19600
F575        F  0.38083684  0.04203823  0.29662670    -0.19900
F576        F  0.39782174  0.10873086  0.26577667    -0.22600
C577        C  0.86947099  0.26071458  0.53207939    -0.05500
C578        C  0.90150827  0.28087274  0.50050606     0.00500
C579        C  0.92937614  0.25459495  0.46786398    -0.08100
C580        C  0.92394339  0.20871209  0.46838370    -0.05500
C581        C  0.89272961  0.18851845  0.50128828     0.00500
C582        C  0.86434336  0.21492000  0.53277741    -0.08000
C583        C  0.82687202  0.19505307  0.56403595     0.62400
H584        H  0.84766477  0.28149495  0.55534210     0.13100
H585        H  0.94469542  0.18827260  0.44324861     0.13100
C586        C  0.96366625  0.27336181  0.43035941     0.62600
F587        F  0.79903670  0.22679696  0.58500753    -0.22600
F588        F  0.84337100  0.17084084  0.60564060    -0.19900
F589        F  0.80244291  0.16831597  0.53067868    -0.19600
F590        F  0.97587581  0.31571947  0.44397846    -0.19600
F591        F  0.94710669  0.27335990  0.37930274    -0.19900
F592        F  0.00111276  0.24757822  0.43099693    -0.22600
C593        C  0.92102781  0.62749527  0.46165040    -0.05500
C594        C  0.88537749  0.60404747  0.48294281     0.00500
C595        C  0.84714846  0.62734072  0.49955340    -0.08100
C596        C  0.84798563  0.67347977  0.49912124    -0.05500
C597        C  0.88296122  0.69657529  0.47624263     0.00500
C598        C  0.91918592  0.67324030  0.45461350    -0.08000
C599        C  0.95426145  0.69568675  0.42138607     0.62400
H600        H  0.94944173  0.60917238  0.44784012     0.13100
H601        H  0.82009155  0.69172247  0.51473987     0.13100
C602        C  0.80478573  0.60562498  0.51776131     0.62600
F603        F  0.99044887  0.66882843  0.41326020    -0.22600
F604        F  0.96857600  0.73390258  0.44550632    -0.19900
F605        F  0.93677550  0.70599332  0.37246711    -0.19600
F606        F  0.79984391  0.61166295  0.57194770    -0.19600
F607        F  0.80333804  0.56115752  0.50630206    -0.19900
F608        F  0.76950040  0.62498617  0.49254937    -0.22600
C609        C  0.90865863  0.20170943  0.01292671    -0.05500
C610        C  0.87612916  0.17960059  0.98377329     0.00500
C611        C  0.84581523  0.20440872  0.95356295    -0.08100
C612        C  0.84917067  0.25075618  0.95396447    -0.05500
C613        C  0.88201358  0.27270936  0.98291969     0.00500
C614        C  0.91279961  0.24777175  0.01221937    -0.08000
C615        C  0.94948634  0.26948902  0.04373890     0.62400
H616        H  0.93103184  0.18244645  0.03661638     0.13100
H617        H  0.82596013  0.27039039  0.93193399     0.13100
C618        C  0.80916565  0.18220258  0.92269186     0.62600
F619        F  0.98192635  0.23970367  0.05690781    -0.22600
F620        F  0.93265579  0.28688084  0.09029873    -0.19900
F621        F  0.96894343  0.30264459  0.01467054    -0.19600
F622        F  0.78543193  0.15501010  0.95590612    -0.19600
F623        F  0.82673196  0.15756606  0.88140411    -0.19900
F624        F  0.78037594  0.21244544  0.90131377    -0.22600
C625        C  0.93849957  0.61905679  0.03306366    -0.05500
C626        C  0.90262010  0.59541021  0.01260606     0.00500
C627        C  0.86362487  0.61810455  0.99910974    -0.08100
C628        C  0.86381970  0.66418544  0.00101090    -0.05500
C629        C  0.89994939  0.68781115  0.02021688     0.00500
C630        C  0.93756310  0.66514522  0.03804002    -0.08000
C631        C  0.97666795  0.68962668  0.06099490     0.62400
H632        H  0.96688420  0.60092385  0.04619426     0.13100
H633        H  0.83552720  0.68218595  0.98749549     0.13100
C634        C  0.82146035  0.59399748  0.98476846     0.62600
F635        F  0.01068745  0.66145321  0.07369216    -0.22600
F636        F  0.96410455  0.71169857  0.10682897    -0.19900
F637        F  0.99225060  0.71960564  0.02452187    -0.19600
F638        F  0.81185479  0.56322246  0.02319943    -0.19600
F639        F  0.82570739  0.57303377  0.93620419    -0.19900
F640        F  0.78609603  0.62246951  0.98169313    -0.22600
C641        C  0.94745794  0.45631794  0.77263421    -0.05500
C642        C  0.90906414  0.44414141  0.80002500     0.00500
C643        C  0.86974091  0.43722956  0.77108026    -0.08100
C644        C  0.87107813  0.43942469  0.71525210    -0.05500
C645        C  0.90991824  0.44958722  0.68782744     0.00500
C646        C  0.94855784  0.45930719  0.71672350    -0.08000
C647        C  0.99059704  0.47243781  0.68833617     0.62400
H648        H  0.97649821  0.46369948  0.79557659     0.13100
H649        H  0.84175689  0.43282277  0.69229407     0.13100
C650        C  0.82631862  0.42858632  0.79911232     0.62600
F651        F  0.02431654  0.48098430  0.72362973    -0.22600
F652        F  0.98359969  0.51005615  0.65920880    -0.19900
F653        F  0.00385604  0.43898982  0.65437031    -0.19600
F654        F  0.81876714  0.46071805  0.83728393    -0.19600
F655        F  0.82722073  0.38796234  0.82313072    -0.19900
F656        F  0.79136087  0.42899287  0.76412432    -0.22600
C657        C  0.83802070  0.43832181  0.21441024    -0.05500
C658        C  0.87600549  0.42291277  0.18845839     0.00500
C659        C  0.91207972  0.40793180  0.21852811    -0.08100
C660        C  0.91004861  0.41164381  0.27401723    -0.05500
C661        C  0.87344301  0.42988726  0.29991205     0.00500
C662        C  0.83578188  0.44124952  0.27022533    -0.08000
C663        C  0.79331000  0.45496341  0.29745432     0.62400
H664        H  0.81056811  0.44888848  0.19045679     0.13100
H665        H  0.93730521  0.40064251  0.29787793     0.13100
C666        C  0.95251615  0.38829386  0.19199352     0.62600
F667        F  0.75962128  0.46050499  0.26135705    -0.22600
F668        F  0.79899726  0.49415970  0.32461871    -0.19900
F669        F  0.78059653  0.42289782  0.33293925    -0.19600
F670        F  0.97083613  0.41807330  0.15717284    -0.19600
F671        F  0.94074356  0.35081974  0.16426701    -0.19900
F672        F  0.98424818  0.37681256  0.22858943    -0.22600
C673        C  0.31203054  0.86352529  0.49153108    -0.05500
C674        C  0.33397092  0.83053404  0.51974500     0.00500
C675        C  0.30917119  0.79682489  0.54425090    -0.08100
C676        C  0.26294852  0.79812893  0.54102872    -0.05500
C677        C  0.24115801  0.83034227  0.51155132     0.00500
C678        C  0.26592431  0.86377691  0.48639926    -0.08000
C679        C  0.24376133  0.89991189  0.45499532     0.62400
H680        H  0.33163176  0.88854999  0.47232282     0.13100
H681        H  0.24339155  0.77275041  0.55959282     0.13100
C682        C  0.33148033  0.75811974  0.57054560     0.62600
F683        F  0.27358432  0.93095831  0.43743112    -0.22600
F684        F  0.21292541  0.92107716  0.48657992    -0.19900
F685        F  0.22322259  0.88213423  0.41091378    -0.19600
F686        F  0.35769701  0.77249490  0.61179611    -0.19600
F687        F  0.35714719  0.73605250  0.53353392    -0.19900
F688        F  0.30132732  0.72865351  0.59103656    -0.22600
C689        C  0.72607078  0.79747016  0.47276024    -0.05500
C690        C  0.74886730  0.83646329  0.48374315     0.00500
C691        C  0.72552534  0.87472762  0.49928047    -0.08100
C692        C  0.67943680  0.87270569  0.50304546    -0.05500
C693        C  0.65663242  0.83346794  0.49305523     0.00500
C694        C  0.68008209  0.79507401  0.47790332    -0.08000
C695        C  0.65676411  0.75148466  0.46928944     0.62400
H696        H  0.74484178  0.76848852  0.46185334     0.13100
H697        H  0.66072563  0.90159462  0.51444386     0.13100
C698        C  0.74934565  0.91736645  0.51173747     0.62600
F699        F  0.68596448  0.71793990  0.45714662    -0.22600
F700        F  0.62736329  0.75469715  0.42784491    -0.19900
F701        F  0.63428376  0.74015747  0.51499959    -0.19600
F702        F  0.77337289  0.93035310  0.46785014    -0.19600
F703        F  0.77745990  0.91149667  0.55405699    -0.19900
F704        F  0.72038193  0.95072649  0.52520013    -0.22600
C705        C  0.27175676  0.86479196  0.03070510    -0.05500
C706        C  0.25153542  0.83835402  0.99173460     0.00500
C707        C  0.27827150  0.81708395  0.95280694    -0.08100
C708        C  0.32426539  0.81923688  0.95824924    -0.05500
C709        C  0.34430122  0.84514795  0.99768250     0.00500
C710        C  0.31763145  0.87044130  0.03266886    -0.08000
C711        C  0.33707905  0.90490517  0.06993206     0.62400
H712        H  0.25111328  0.88222079  0.05899165     0.13100
H713        H  0.34530554  0.80103162  0.93114084     0.13100
C714        C  0.25904308  0.79249228  0.90549934     0.62600
F715        F  0.30487274  0.93189797  0.09148214    -0.22600
F716        F  0.36619925  0.93117666  0.04230424    -0.19900
F717        F  0.35887622  0.88527246  0.11139222    -0.19600
F718        F  0.23645243  0.82156248  0.87372379    -0.19600
F719        F  0.23082491  0.75992659  0.92242753    -0.19900
F720        F  0.29130384  0.77284778  0.87446029    -0.22600
C721        C  0.68738051  0.78213519  0.01478371    -0.05500
C722        C  0.66586518  0.82237243  0.02297642     0.00500
C723        C  0.69072117  0.86112685  0.03164503    -0.08100
C724        C  0.73682810  0.85851381  0.02946092    -0.05500
C725        C  0.75827978  0.81853414  0.01951419     0.00500
C726        C  0.73347703  0.77958731  0.01283506    -0.08000
C727        C  0.75583494  0.73572183  0.00391196     0.62400
H728        H  0.66761388  0.75292228  0.00878001     0.13100
H729        H  0.75660354  0.88771603  0.03558216     0.13100
C730        C  0.66869927  0.90474795  0.04437561     0.62600
F731        F  0.72596035  0.70146926  0.00117900    -0.22600
F732        F  0.78421922  0.72764692  0.04546497    -0.19900
F733        F  0.77913777  0.73665019  0.95669096    -0.19600
F734        F  0.64954381  0.90301494  0.09410034    -0.18800
F735        F  0.63661032  0.91372477  0.00739445    -0.19900
F736        F  0.69847917  0.93911214  0.04447009    -0.22600
C737        C  0.49510559  0.81368931  0.79168096    -0.05500
C738        C  0.51452980  0.85031727  0.81631531     0.00500
C739        C  0.53199897  0.88435004  0.78434704    -0.08100
C740        C  0.52621293  0.88184295  0.72864660    -0.05500
C741        C  0.50580240  0.84546584  0.70413522     0.00500
C742        C  0.49158615  0.81000635  0.73608369    -0.08000
C743        C  0.47426057  0.76769926  0.71155856     0.62400
H744        H  0.48282607  0.78765383  0.81676860     0.13100
H745        H  0.53853869  0.90781186  0.70349600     0.13100
C746        C  0.55732184  0.92253522  0.80859355     0.62600
F747        F  0.46640664  0.73596768  0.74952450    -0.22600
F748        F  0.50476289  0.75095705  0.67589220    -0.19900
F749        F  0.43531013  0.77559492  0.68541417    -0.19600
F750        F  0.59635708  0.90744958  0.82939801    -0.19600
F751        F  0.53317167  0.94219091  0.84876859    -0.19900
F752        F  0.56722405  0.95424190  0.77127846    -0.22600
C753        C  0.49418872  0.77487157  0.28908705    -0.05500
C754        C  0.48518804  0.81560509  0.31349108     0.00500
C755        C  0.47611049  0.85254767  0.28163700    -0.08100
C756        C  0.47865470  0.84809255  0.22617372    -0.05500
C757        C  0.48933550  0.80801655  0.20177780     0.00500
C758        C  0.49594415  0.77028810  0.23327574    -0.08000
C759        C  0.50457887  0.72568830  0.20800045     0.62400
H760        H  0.50051049  0.74689464  0.31422323     0.13100
H761        H  0.47322303  0.87624926  0.20099049     0.13100
C762        C  0.46409913  0.89662233  0.30590019     0.62600
F763        F  0.50758095  0.69297789  0.24568224    -0.22600
F764        F  0.54351331  0.72652738  0.17965523    -0.19900
F765        F  0.47065442  0.71494774  0.17394632    -0.19600
F766        F  0.49786548  0.91187037  0.33764280    -0.19600
F767        F  0.42639829  0.89245416  0.33625713    -0.19900
F768        F  0.45634258  0.92752910  0.26700409    -0.22600
loop_ 
_geom_bond_atom_site_label_1 
_geom_bond_atom_site_label_2 
_geom_bond_distance 
_geom_bond_site_symmetry_2 
_ccdc_geom_bond_type 
N1            C6   1.353       .  A
N1            C5   1.354       .  A
N1           H33   1.040       .  S
N2            C9   1.353       .  A
N2           C10   1.351       .  A
N3            C8   1.358       .  A
N3            C7   1.354       .  A
N3           H34   1.039       .  S
N4           C11   1.353       .  A
N4           C12   1.353       .  A
C5           C13   1.384       .  A
C5           C21   1.411       .  A
C6           C22   1.417       .  A
C6           C14   1.389       .  A
C7           C15   1.388       .  A
C7           C24   1.419   1_556  A
C8           C23   1.420       .  A
C8           C16   1.386       .  A
C9           C21   1.412       .  A
C9           C17   1.385       .  A
C10          C24   1.413       .  A
C10          C18   1.387       .  A
C11          C19   1.386       .  A
C11          C22   1.419   1_556  A
C12          C20   1.385       .  A
C12          C23   1.418       .  A
C13          C14   1.375       .  A
C13          H25   1.082       .  S
C14          H26   1.082       .  S
C15          C16   1.376       .  A
C15          H27   1.082       .  S
C16          H28   1.082       .  S
C17          C18   1.371       .  A
C17          H29   1.082       .  S
C18          H30   1.082       .  S
C19          C20   1.374       .  A
C19          H31   1.082       .  S
C20          H32   1.080       .  S
C21         C757   1.490       .  S
C22         C709   1.497   1_554  S
C23         C738   1.501       .  S
C24         C722   1.488       .  S
N35          C40   1.354       .  A
N35          C39   1.352       .  A
N35          H67   1.039       .  S
N36          C43   1.353       .  A
N36          C44   1.354       .  A
N37          C42   1.357       .  A
N37          C41   1.357       .  A
N37          H68   1.039       .  S
N38          C45   1.353       .  A
N38          C46   1.351       .  A
C39          C47   1.387       .  A
C39          C55   1.414       .  A
C40          C56   1.416       .  A
C40          C48   1.387       .  A
C41          C49   1.387       .  A
C41          C58   1.422       .  A
C42          C57   1.423       .  A
C42          C50   1.388       .  A
C43          C55   1.416       .  A
C43          C51   1.386       .  A
C44          C58   1.418       .  A
C44          C52   1.387       .  A
C45          C53   1.384       .  A
C45          C56   1.412       .  A
C46          C54   1.388       .  A
C46          C57   1.416       .  A
C47          C48   1.375       .  A
C47          H59   1.082       .  S
C48          H60   1.082       .  S
C49          C50   1.382       .  A
C49          H61   1.083       .  S
C50          H62   1.082       .  S
C51          C52   1.374       .  A
C51          H63   1.082       .  S
C52          H64   1.082       .  S
C53          C54   1.374       .  A
C53          H65   1.082       .  S
C54          H66   1.082       .  S
C55         C693   1.490       .  S
C56         C754   1.493       .  S
C57         C674   1.498       .  S
C58         C741   1.503       .  S
N69          C74   1.353       .  A
N69          C73   1.352       .  A
N69         H101   1.039       .  S
N70          C77   1.355       .  A
N70          C78   1.354       .  A
N71          C76   1.356       .  A
N71          C75   1.356       .  A
N71         H102   1.032       .  S
N72          C79   1.351       .  A
N72          C80   1.350       .  A
C73          C81   1.388       .  A
C73          C89   1.416   1_554  A
C74          C90   1.412       .  A
C74          C82   1.385       .  A
C75          C83   1.388       .  A
C75          C92   1.424       .  A
C76          C91   1.425   1_556  A
C76          C84   1.388       .  A
C77          C89   1.420       .  A
C77          C85   1.386       .  A
C78          C92   1.422       .  A
C78          C86   1.387       .  A
C79          C87   1.385       .  A
C79          C90   1.412       .  A
C80          C88   1.388       .  A
C80          C91   1.416       .  A
C81          C82   1.377       .  A
C81          H93   1.082       .  S
C82          H94   1.082       .  S
C83          C84   1.375       .  A
C83          H95   1.082       .  S
C84          H96   1.082       .  S
C85          C86   1.377       .  A
C85          H97   1.082       .  S
C86          H98   1.083       .  S
C87          C88   1.369       .  A
C87          H99   1.083       .  S
C88         H100   1.081       .  S
C89         C613   1.499       .  S
C90         C658   1.487       .  S
C91         C626   1.492       .  S
C92         C642   1.500       .  S
N103        C108   1.357       .  A
N103        C107   1.355       .  A
N103        H135   1.035       .  S
N104        C111   1.352       .  A
N104        C112   1.353       .  A
N105        C110   1.351       .  A
N105        C109   1.351       .  A
N105        H136   1.039       .  S
N106        C113   1.352       .  A
N106        C114   1.352       .  A
C107        C115   1.389       .  A
C107        C123   1.425       .  A
C108        C124   1.421       .  A
C108        C116   1.386       .  A
C109        C117   1.385       .  A
C109        C126   1.408       .  A
C110        C125   1.412       .  A
C110        C118   1.388       .  A
C111        C123   1.421       .  A
C111        C119   1.390       .  A
C112        C126   1.413       .  A
C112        C120   1.383       .  A
C113        C121   1.387       .  A
C113        C124   1.416       .  A
C114        C122   1.386       .  A
C114        C125   1.415       .  A
C115        C116   1.375       .  A
C115        H127   1.081       .  S
C116        H128   1.082       .  S
C117        C118   1.372       .  A
C117        H129   1.082       .  S
C118        H130   1.082       .  S
C119        C120   1.371       .  A
C119        H131   1.081       .  S
C120        H132   1.083       .  S
C121        C122   1.373       .  A
C121        H133   1.082       .  S
C122        H134   1.082       .  S
C123        C594   1.494       .  S
C124        C645   1.496       .  S
C125        C578   1.488       .  S
C126        C661   1.488       .  S
N137        C142   1.352       .  A
N137        C141   1.355       .  A
N137        H169   1.042       .  S
N138        C145   1.351       .  A
N138        C146   1.351       .  A
N139        C144   1.351       .  A
N139        C143   1.358       .  A
N139        H170   1.041       .  S
N140        C147   1.353       .  A
N140        C148   1.351       .  A
C141        C149   1.390       .  A
C141        C157   1.426       .  A
C142        C158   1.409   1_554  A
C142        C150   1.381       .  A
C143        C151   1.384       .  A
C143        C160   1.419       .  A
C144        C159   1.419       .  A
C144        C152   1.390       .  A
C145        C157   1.418       .  A
C145        C153   1.386       .  A
C146        C160   1.415   1_554  A
C146        C154   1.383   1_545  A
C147        C155   1.384       .  A
C147        C158   1.410       .  A
C148        C156   1.387       .  A
C148        C159   1.415       .  A
C149        C150   1.376       .  A
C149        H161   1.080       .  S
C150        H162   1.080       .  S
C151        C152   1.375       .  A
C151        H163   1.082       .  S
C152        H164   1.080       .  S
C153        C154   1.379   1_545  A
C153        H165   1.082   1_545  S
C154        H166   1.080       .  S
C155        C156   1.370       .  A
C155        H167   1.082       .  S
C156        H168   1.082       .  S
C157        C565   1.515       .  S
C158        C517   1.491   1_556  S
C159        C546   1.488       .  S
C160        C530   1.509       .  S
N171        C176   1.352       .  A
N171        C175   1.348       .  A
N171        H203   1.043       .  S
N172        C179   1.344       .  A
N172        C180   1.347       .  A
N173        C178   1.350       .  A
N173        C177   1.352       .  A
N173        H204   1.044       .  S
N174        C181   1.348       .  A
N174        C182   1.350       .  A
C175        C183   1.385       .  A
C175        C191   1.408       .  A
C176        C192   1.419       .  A
C176        C184   1.390       .  A
C177        C185   1.383   1_545  A
C177        C194   1.413       .  A
C178        C193   1.419       .  A
C178        C186   1.384   1_545  A
C179        C191   1.404       .  A
C179        C187   1.386       .  A
C180        C194   1.409       .  A
C180        C188   1.386       .  A
C181        C189   1.383       .  A
C181        C192   1.410       .  A
C182        C190   1.390       .  A
C182        C193   1.422       .  A
C183        C184   1.382       .  A
C183        H195   1.082       .  S
C184        H196   1.082       .  S
C185        C186   1.380       .  A
C185        H197   1.082       .  S
C186        H198   1.073       .  S
C187        C188   1.378       .  A
C187        H199   1.082       .  S
C188        H200   1.082       .  S
C189        C190   1.384       .  A
C189        H201   1.082       .  S
C190        H202   1.082       .  S
C191        C549   1.477       .  S
C192        C501   1.504       .  S
C193        C562   1.518       .  S
C194        C482   1.499       .  S
N205        C210   1.353       .  A
N205        C209   1.352       .  A
N205        H237   1.039       .  S
N206        C213   1.349       .  A
N206        C214   1.351       .  A
N207        C212   1.353       .  A
N207        C211   1.357       .  A
N207        H238   1.034       .  S
N208        C215   1.356       .  A
N208        C216   1.354       .  A
C209        C217   1.388       .  A
C209        C225   1.416   1_556  A
C210        C226   1.413       .  A
C210        C218   1.386       .  A
C211        C219   1.385       .  A
C211        C228   1.422       .  A
C212        C227   1.427       .  A
C212        C220   1.390       .  A
C213        C225   1.413       .  A
C213        C221   1.387       .  A
C214        C228   1.415       .  A
C214        C222   1.387       .  A
C215        C223   1.385       .  A
C215        C226   1.419       .  A
C216        C224   1.388       .  A
C216        C227   1.424   1_556  A
C217        C218   1.374       .  A
C217        H229   1.082       .  S
C218        H230   1.082       .  S
C219        C220   1.376       .  A
C219        H231   1.082       .  S
C220        H232   1.081       .  S
C221        C222   1.374       .  A
C221        H233   1.082       .  S
C222        H234   1.082       .  S
C223        C224   1.372       .  A
C223        H235   1.082       .  S
C224        H236   1.082       .  S
C225        C437   1.484       .  S
C226        C450   1.499       .  S
C227        C421   1.497   1_554  S
C228        C466   1.496       .  S
N239        C244   1.354       .  A
N239        C243   1.353       .  A
N239        H271   1.038       .  S
N240        C247   1.353       .  A
N240        C248   1.354       .  A
N241        C246   1.354       .  A
N241        C245   1.354       .  A
N241        H272   1.039       .  S
N242        C249   1.352       .  A
N242        C250   1.351       .  A
C243        C251   1.388       .  A
C243        C259   1.417       .  A
C244        C260   1.416       .  A
C244        C252   1.387       .  A
C245        C253   1.386       .  A
C245        C262   1.416       .  A
C246        C261   1.418       .  A
C246        C254   1.387       .  A
C247        C259   1.417       .  A
C247        C255   1.387       .  A
C248        C262   1.416       .  A
C248        C256   1.386       .  A
C249        C257   1.385       .  A
C249        C260   1.414       .  A
C250        C258   1.387       .  A
C250        C261   1.416       .  A
C251        C252   1.373       .  A
C251        H263   1.081       .  S
C252        H264   1.082       .  S
C253        C254   1.378       .  A
C253        H265   1.082       .  S
C254        H266   1.082       .  S
C255        C256   1.373       .  A
C255        H267   1.082       .  S
C256        H268   1.082       .  S
C257        C258   1.374       .  A
C257        H269   1.083       .  S
C258        H270   1.081       .  S
C259        C386   1.491       .  S
C260        C469   1.491       .  S
C261        C405   1.493       .  S
C262        C453   1.494       .  S
O273       Cu281   2.014       .  S
O273        C283   1.278   1_556  A
O274       Cu281   2.021       .  S
O274        C284   1.279   1_556  A
O275       Cu281   1.999       .  S
O275        C285   1.276   1_556  A
O276       Cu281   2.010       .  S
O276        C286   1.277   1_556  A
O277       Cu282   2.020       .  S
O277        C286   1.279       .  A
O278       Cu282   2.015       .  S
O278        C285   1.278       .  A
O279       Cu282   2.018       .  S
O279        C284   1.278       .  A
O280       Cu282   2.014       .  S
O280        C283   1.277       .  A
Cu281      Cu282   2.376   1_556  S
C283        C725   1.474       .  S
C284        C368   1.475   1_655  S
C285        C629   1.472       .  S
C286        C314   1.472       .  S
O287       Cu295   1.997       .  S
O287        C297   1.275       .  A
O288       Cu295   2.004       .  S
O288        C298   1.277       .  A
O289       Cu295   2.013       .  S
O289        C299   1.278       .  A
O290       Cu295   2.011       .  S
O290        C300   1.278       .  A
O291       Cu296   2.006       .  S
O291        C300   1.276       .  A
O292       Cu296   2.008       .  S
O292        C299   1.278       .  A
O293       Cu296   2.027       .  S
O293        C298   1.280       .  A
O294       Cu296   2.026       .  S
O294        C297   1.279       .  A
Cu295      Cu296   2.376       .  S
C297        C690   1.473       .  S
C298        C382   1.473   1_655  S
C299        C326   1.468       .  S
C300        C597   1.473       .  S
O301       Cu309   2.033       .  S
O301        C311   1.281       .  A
O302       Cu309   2.038       .  S
O302        C312   1.282       .  A
O303       Cu309   2.025       .  S
O303        C313   1.278       .  A
O304       Cu309   2.016   1_565  S
O304        C314   1.278   1_556  A
O305       Cu310   2.014   1_565  S
O305        C314   1.278       .  A
O306       Cu310   2.024       .  S
O306        C313   1.280   1_554  A
O307       Cu310   2.020       .  S
O307        C312   1.278   1_554  A
O308       Cu310   2.009       .  S
O308        C311   1.277   1_554  A
Cu309      Cu310   2.369   1_556  S
C311        C340   1.476   1_655  S
C312        C533   1.503       .  S
C313        C610   1.489       .  S
O315       Cu323   2.006       .  S
O315        C325   1.277       .  A
O316       Cu323   2.002   1_565  S
O316        C326   1.277       .  A
O317       Cu323   2.022       .  S
O317        C327   1.281       .  A
O318       Cu323   2.015       .  S
O318        C328   1.279       .  A
O319       Cu324   2.012       .  S
O319        C328   1.278       .  A
O320       Cu324   2.016       .  S
O320        C327   1.276       .  A
O321       Cu324   2.018   1_565  S
O321        C326   1.279       .  A
O322       Cu324   2.015       .  S
O322        C325   1.278       .  A
Cu323      Cu324   2.371       .  S
C325        C581   1.480       .  S
C327        C498   1.497       .  S
C328        C354   1.470   1_655  S
O329       Cu337   2.013       .  S
O329        C339   1.278   1_556  A
O330       Cu337   2.018       .  S
O330        C340   1.278       .  A
O331       Cu337   2.006       .  S
O331        C341   1.277   1_556  A
O332       Cu337   2.020   1_565  S
O332        C342   1.279       .  A
O333       Cu338   2.009   1_565  S
O333        C342   1.277   1_554  A
O334       Cu338   1.992       .  S
O334        C341   1.275       .  A
O335       Cu338   2.023       .  S
O335        C340   1.280   1_554  A
O336       Cu338   2.018       .  S
O336        C339   1.278       .  A
Cu337      Cu338   2.376   1_556  S
C339        C514   1.476       .  S
C341        C434   1.467       .  S
C342        C369   1.471       .  S
O343       Cu351   2.025       .  S
O343        C353   1.281       .  A
O344       Cu351   2.016       .  S
O344        C354   1.279       .  A
O345       Cu351   1.991   1_565  S
O345        C355   1.275       .  A
O346       Cu351   2.003       .  S
O346        C356   1.276       .  A
O347       Cu352   2.027       .  S
O347        C356   1.280       .  A
O348       Cu352   2.018   1_565  S
O348        C355   1.279       .  A
O349       Cu352   2.011       .  S
O349        C354   1.277       .  A
O350       Cu352   2.008       .  S
O350        C353   1.276       .  A
Cu351      Cu352   2.371       .  S
C353        C485   1.496       .  S
C355        C384   1.463       .  S
C356        C402   1.483       .  S
O357       Cu365   2.016       .  S
O357        C367   1.277       .  A
O358       Cu365   2.015       .  S
O358        C368   1.278   1_556  A
O359       Cu365   2.018       .  S
O359        C369   1.278       .  A
O360       Cu365   2.022       .  S
O360        C370   1.279   1_556  A
O361       Cu366   2.021       .  S
O361        C370   1.278       .  A
O362       Cu366   2.010       .  S
O362        C369   1.278   1_554  A
O363       Cu366   2.023       .  S
O363        C368   1.280       .  A
O364       Cu366   2.017       .  S
O364        C367   1.280   1_554  A
Cu365      Cu366   2.371   1_556  S
C367        C706   1.491       .  S
C370        C418   1.483       .  S
O371       Cu379   2.019       .  S
O371        C381   1.278       .  A
O372       Cu379   2.012       .  S
O372        C382   1.278       .  A
O373       Cu379   2.008       .  S
O373        C383   1.276       .  A
O374       Cu379   2.002       .  S
O374        C384   1.278       .  A
O375       Cu380   2.007       .  S
O375        C384   1.277       .  A
O376       Cu380   2.019       .  S
O376        C383   1.279       .  A
O377       Cu380   2.021       .  S
O377        C382   1.279       .  A
O378       Cu380   2.018       .  S
O378        C381   1.278       .  A
Cu379      Cu380   2.375       .  S
C381        C677   1.484       .  S
C383        C389   1.476       .  S
C385        C386   1.405       .  A
C385        C390   1.407       .  A
C385        H392   1.084       .  S
C386        C387   1.421       .  A
C387        C388   1.404       .  A
C387        C394   1.518       .  S
C388        C389   1.400       .  A
C388        H393   1.085       .  S
C389        C390   1.415       .  A
C390        C391   1.516       .  S
C391        F395   1.385       .  S
C391        F396   1.377       .  S
C391        F397   1.382       .  S
C394        F398   1.383       .  S
C394        F399   1.381       .  S
C394        F400   1.384       .  S
C401        C402   1.405       .  A
C401        C406   1.408       .  A
C401        H408   1.083       .  S
C402        C403   1.416       .  A
C403        C404   1.408       .  A
C403        C410   1.515       .  S
C404        C405   1.404       .  A
C404        H409   1.083       .  S
C405        C406   1.417       .  A
C406        C407   1.520       .  S
C407        F411   1.385       .  S
C407        F412   1.382       .  S
C407        F413   1.381       .  S
C410        F414   1.382       .  S
C410        F415   1.383       .  S
C410        F416   1.384       .  S
C417        C418   1.403   1_556  A
C417        C422   1.408       .  A
C417        H424   1.083       .  S
C418        C419   1.419       .  A
C419        C420   1.410       .  A
C419        C426   1.518       .  S
C420        C421   1.404   1_554  A
C420        H425   1.083       .  S
C421        C422   1.419       .  A
C422        C423   1.521       .  S
C423        F427   1.384       .  S
C423        F428   1.382       .  S
C423        F429   1.379       .  S
C426        F430   1.382       .  S
C426        F431   1.380       .  S
C426        F432   1.385       .  S
C433        C434   1.401       .  A
C433        C438   1.403       .  A
C433        H440   1.084       .  S
C434        C435   1.413   1_554  A
C435        C436   1.405       .  A
C435        C442   1.518       .  S
C436        C437   1.404   1_556  A
C436        H441   1.083       .  S
C437        C438   1.416       .  A
C438        C439   1.520       .  S
C439        F443   1.385       .  S
C439        F444   1.381       .  S
C439        F445   1.382       .  S
C442        F446   1.383       .  S
C442        F447   1.382       .  S
C442        F448   1.384   1_455  S
C449        C450   1.406       .  A
C449        C454   1.412       .  A
C449        H456   1.083       .  S
C450        C451   1.420       .  A
C451        C452   1.406       .  A
C451        C458   1.520       .  S
C452        C453   1.401       .  A
C452        H457   1.083       .  S
C453        C454   1.417       .  A
C454        C455   1.517       .  S
C455        F459   1.381       .  S
C455        F460   1.382       .  S
C455        F461   1.385       .  S
C458        F462   1.383       .  S
C458        F463   1.380       .  S
C458        F464   1.384       .  S
C465        C466   1.406       .  A
C465        C470   1.412       .  A
C465        H472   1.082       .  S
C466        C467   1.418       .  A
C467        C468   1.405       .  A
C467        C474   1.519       .  S
C468        C469   1.400       .  A
C468        H473   1.083       .  S
C469        C470   1.415       .  A
C470        C471   1.517       .  S
C471        F475   1.384   1_455  S
C471        F476   1.382       .  S
C471        F477   1.383       .  S
C474        F478   1.383       .  S
C474        F479   1.381       .  S
C474        F480   1.385       .  S
C481        C482   1.405       .  A
C481        C486   1.408       .  A
C481        H488   1.083       .  S
C482        C483   1.419       .  A
C483        C484   1.406       .  A
C483        C490   1.519   1_545  S
C484        C485   1.408       .  A
C484        H489   1.084   1_545  S
C485        C486   1.425       .  A
C486        C487   1.520       .  S
C487        F491   1.385       .  S
C487        F492   1.379       .  S
C487        F493   1.384       .  S
C490        F494   1.382       .  S
C490        F495   1.383       .  S
C490        F496   1.383       .  S
C497        C498   1.407       .  A
C497        C502   1.408       .  A
C497        H504   1.083       .  S
C498        C499   1.424       .  A
C499        C500   1.410       .  A
C499        C506   1.521       .  S
C500        C501   1.407       .  A
C500        H505   1.082       .  S
C501        C502   1.421       .  A
C502        C503   1.522   1_545  S
C503        F507   1.385       .  S
C503        F508   1.379   1_565  S
C503        F509   1.384       .  S
C506        F510   1.376       .  S
C506        F511   1.383       .  S
C506        F512   1.385       .  S
C513        C514   1.404       .  A
C513        C518   1.410       .  A
C513        H520   1.085       .  S
C514        C515   1.410   1_554  A
C515        C516   1.405       .  A
C515        C522   1.516   1_545  S
C516        C517   1.405   1_556  A
C516        H521   1.083       .  S
C517        C518   1.421       .  A
C518        C519   1.519       .  S
C519        F523   1.383       .  S
C519        F524   1.384   1_554  S
C519        F525   1.382   1_554  S
C522        F526   1.383       .  S
C522        F527   1.383   1_556  S
C522        F528   1.382       .  S
C529        C530   1.406   1_554  A
C529        C534   1.412       .  A
C529        H536   1.083       .  S
C530        C531   1.425       .  A
C531        C532   1.413       .  A
C531        C538   1.520   1_545  S
C532        C533   1.408       .  A
C532        H537   1.084   1_545  S
C533        C534   1.425   1_556  A
C534        C535   1.521       .  S
C535        F539   1.385       .  S
C535        F540   1.383       .  S
C535        F541   1.383       .  S
C538        F542   1.383       .  S
C538        F543   1.381       .  S
C538        F544   1.384       .  S
C545        C546   1.404       .  A
C545        C550   1.404       .  A
C545        H552   1.083       .  S
C546        C547   1.424       .  A
C547        C548   1.401       .  A
C547        C554   1.520   1_545  S
C548        C549   1.397       .  A
C548        H553   1.085   1_545  S
C549        C550   1.412       .  A
C550        C551   1.518       .  S
C551        F555   1.384       .  S
C551        F556   1.383       .  S
C551        F557   1.382       .  S
C554        F558   1.382       .  S
C554        F559   1.381       .  S
C554        F560   1.381       .  S
C561        C562   1.413       .  A
C561        C566   1.408       .  A
C561        H568   1.080       .  S
C562        C563   1.426       .  A
C563        C564   1.404       .  A
C563        C570   1.522       .  S
C564        C565   1.408       .  A
C564        H569   1.082       .  S
C565        C566   1.425       .  A
C566        C567   1.521       .  S
C567        F571   1.384       .  S
C567        F572   1.382       .  S
C567        F573   1.382       .  S
C570        F574   1.381       .  S
C570        F575   1.383       .  S
C570        F576   1.383       .  S
C577        C578   1.401       .  A
C577        C582   1.402       .  A
C577        H584   1.083       .  S
C578        C579   1.420       .  A
C579        C580   1.406       .  A
C579        C586   1.520       .  S
C580        C581   1.403       .  A
C580        H585   1.084       .  S
C581        C582   1.415       .  A
C582        C583   1.512       .  S
C583        F587   1.385       .  S
C583        F588   1.382       .  S
C583        F589   1.383       .  S
C586        F590   1.382       .  S
C586        F591   1.383       .  S
C586        F592   1.384   1_655  S
C593        C594   1.406       .  A
C593        C598   1.406       .  A
C593        H600   1.083       .  S
C594        C595   1.422       .  A
C595        C596   1.404       .  A
C595        C602   1.520       .  S
C596        C597   1.400       .  A
C596        H601   1.085       .  S
C597        C598   1.416       .  A
C598        C599   1.520       .  S
C599        F603   1.385       .  S
C599        F604   1.379       .  S
C599        F605   1.382       .  S
C602        F606   1.383       .  S
C602        F607   1.382       .  S
C602        F608   1.384       .  S
C609        C610   1.403   1_554  A
C609        C614   1.407       .  A
C609        H616   1.083       .  S
C610        C611   1.420       .  A
C611        C612   1.414       .  A
C611        C618   1.518       .  S
C612        C613   1.405       .  A
C612        H617   1.083       .  S
C613        C614   1.419   1_556  A
C614        C615   1.520       .  S
C615        F619   1.384       .  S
C615        F620   1.379       .  S
C615        F621   1.383       .  S
C618        F622   1.383       .  S
C618        F623   1.382       .  S
C618        F624   1.385       .  S
C625        C626   1.405       .  A
C625        C630   1.407       .  A
C625        H632   1.080       .  S
C626        C627   1.417   1_554  A
C627        C628   1.403   1_556  A
C627        C634   1.521       .  S
C628        C629   1.399       .  A
C628        H633   1.078   1_554  S
C629        C630   1.413       .  A
C630        C631   1.518       .  S
C631        F635   1.384   1_655  S
C631        F636   1.383       .  S
C631        F637   1.383       .  S
C634        F638   1.383   1_556  S
C634        F639   1.380       .  S
C634        F640   1.385       .  S
C641        C642   1.406       .  A
C641        C646   1.412       .  A
C641        H648   1.080       .  S
C642        C643   1.419       .  A
C643        C644   1.408       .  A
C643        C650   1.520       .  S
C644        C645   1.403       .  A
C644        H649   1.083       .  S
C645        C646   1.415       .  A
C646        C647   1.518       .  S
C647        F651   1.384   1_655  S
C647        F652   1.382       .  S
C647        F653   1.383   1_655  S
C650        F654   1.383       .  S
C650        F655   1.381       .  S
C650        F656   1.384       .  S
C657        C658   1.404       .  A
C657        C662   1.409       .  A
C657        H664   1.083       .  S
C658        C659   1.414       .  A
C659        C660   1.402       .  A
C659        C666   1.518       .  S
C660        C661   1.401       .  A
C660        H665   1.081       .  S
C661        C662   1.416       .  A
C662        C663   1.518       .  S
C663        F667   1.384       .  S
C663        F668   1.381       .  S
C663        F669   1.383       .  S
C666        F670   1.382       .  S
C666        F671   1.380       .  S
C666        F672   1.385       .  S
C673        C674   1.405       .  A
C673        C678   1.410       .  A
C673        H680   1.083       .  S
C674        C675   1.418       .  A
C675        C676   1.410       .  A
C675        C682   1.518       .  S
C676        C677   1.403       .  A
C676        H681   1.083       .  S
C677        C678   1.418       .  A
C678        C679   1.519       .  S
C679        F683   1.384       .  S
C679        F684   1.383       .  S
C679        F685   1.382       .  S
C682        F686   1.380       .  S
C682        F687   1.383       .  S
C682        F688   1.385       .  S
C689        C690   1.401       .  A
C689        C694   1.407       .  A
C689        H696   1.083       .  S
C690        C691   1.415       .  A
C691        C692   1.407       .  A
C691        C698   1.517       .  S
C692        C693   1.402       .  A
C692        H697   1.083       .  S
C693        C694   1.418       .  A
C694        C695   1.519       .  S
C695        F699   1.385       .  S
C695        F700   1.382       .  S
C695        F701   1.383       .  S
C698        F702   1.383       .  S
C698        F703   1.382       .  S
C698        F704   1.383       .  S
C705        C706   1.407   1_554  A
C705        C710   1.408       .  A
C705        H712   1.083       .  S
C706        C707   1.423       .  A
C707        C708   1.409       .  A
C707        C714   1.520       .  S
C708        C709   1.404       .  A
C708        H713   1.083       .  S
C709        C710   1.418   1_556  A
C710        C711   1.522       .  S
C711        F715   1.385       .  S
C711        F716   1.383       .  S
C711        F717   1.380       .  S
C714        F718   1.383       .  S
C714        F719   1.381       .  S
C714        F720   1.385       .  S
C721        C722   1.402       .  A
C721        C726   1.406       .  A
C721        H728   1.083       .  S
C722        C723   1.417       .  A
C723        C724   1.407       .  A
C723        C730   1.518       .  S
C724        C725   1.401       .  A
C724        H729   1.084       .  S
C725        C726   1.414       .  A
C726        C727   1.513       .  S
C727        F731   1.385       .  S
C727        F732   1.383       .  S
C727        F733   1.383   1_554  S
C730        F734   1.380       .  S
C730        F735   1.381       .  S
C730        F736   1.384       .  S
C737        C738   1.403       .  A
C737        C742   1.408       .  A
C737        H744   1.083       .  S
C738        C739   1.419       .  A
C739        C740   1.416       .  A
C739        C746   1.519       .  S
C740        C741   1.408       .  A
C740        H745   1.083       .  S
C741        C742   1.418       .  A
C742        C743   1.518       .  S
C743        F747   1.385       .  S
C743        F748   1.383       .  S
C743        F749   1.381       .  S
C746        F750   1.381       .  S
C746        F751   1.380       .  S
C746        F752   1.385       .  S
C753        C754   1.405       .  A
C753        C758   1.412       .  A
C753        H760   1.083       .  S
C754        C755   1.415       .  A
C755        C756   1.404       .  A
C755        C762   1.513       .  S
C756        C757   1.398       .  A
C756        H761   1.083       .  S
C757        C758   1.416       .  A
C758        C759   1.516       .  S
C759        F763   1.384       .  S
C759        F764   1.381       .  S
C759        F765   1.382       .  S
C762        F766   1.382       .  S
C762        F767   1.383       .  S
C762        F768   1.385       .  S
