geometry optimzed in LAMMPS
_audit_creation_date              2020-12-01 
_audit_creation_method            'lammps2cif' 
_symmetry_space_group_name_H-M    'P1' 
_symmetry_Int_Tables_number       1 
_symmetry_cell_setting            triclinic 
loop_ 
_symmetry_equiv_pos_as_xyz 
  x,y,z 
_cell_length_a                    40.16852424 
_cell_length_b                    40.18122961564395 
_cell_length_c                    40.27543282305792 
_cell_angle_alpha                 90.21377290401794 
_cell_angle_beta                  89.8157483939078 
_cell_angle_gamma                 90.18312709152606 
loop_ 
_atom_site_label 
_atom_site_type_symbol 
_atom_site_fract_x 
_atom_site_fract_y 
_atom_site_fract_z 
_atom_site_charge 
O1          O  0.96208192  0.22865937  0.46593124    -0.72400
O2          O  0.03065248  0.23480940  0.53742225    -0.73400
O3          O  0.96044659  0.23775492  0.53495525    -0.62000
O4          O  0.03247964  0.22471139  0.46754108    -0.70400
O5          O  0.03527514  0.27940267  0.46021581    -0.69900
O6          O  0.96363873  0.29250746  0.52861195    -0.61200
O7          O  0.03453580  0.28894846  0.52999045    -0.73700
O8          O  0.96569603  0.28298073  0.45894938    -0.72500
Cu9        Cu  0.99640465  0.22960199  0.50178290     1.04600
Cu10       Cu  0.99994464  0.28787297  0.49430575     1.04300
C11         C  0.95287093  0.25500034  0.45093692     0.93800
C12         C  0.04376394  0.26276348  0.54520833     0.93000
C13         C  0.95016321  0.26696360  0.54194448     0.85100
C14         C  0.04469875  0.24999492  0.45271253     0.91400
C15         C  0.27657063  0.22295685  0.25272189     0.02900
C16         C  0.25085959  0.22361954  0.27754693     0.02900
C17         C  0.22660501  0.24978128  0.27758482     0.02900
C18         C  0.22810866  0.27532312  0.25287415     0.02900
C19         C  0.25339287  0.27427689  0.22760631     0.02900
C20         C  0.27786415  0.24831472  0.22762753     0.02900
C21         C  0.77351504  0.25702435  0.72004978     0.02900
C22         C  0.77100089  0.27926098  0.74770796     0.02900
C23         C  0.74458945  0.27483837  0.77131832     0.02900
C24         C  0.72211227  0.24721037  0.76811433     0.02900
C25         C  0.72531548  0.22453612  0.74071530     0.02900
C26         C  0.75084383  0.22969494  0.71645357     0.02900
O27         O  0.53409218  0.03078777  0.23275507    -0.72400
O28         O  0.46553677  0.95811920  0.23819234    -0.73400
O29         O  0.46369418  0.02857117  0.23207427    -0.62000
O30         O  0.53542892  0.96030005  0.23729607    -0.70400
O31         O  0.53852836  0.96625260  0.29167398    -0.69900
O32         O  0.46084752  0.03043903  0.28706280    -0.61200
O33         O  0.46842869  0.95990785  0.29275979    -0.73700
O34         O  0.53104344  0.03671825  0.28707350    -0.72500
Cu35       Cu  0.49966516  0.99434160  0.23321728     1.04600
Cu36       Cu  0.49966067  0.99852874  0.29157808     1.04300
C37         C  0.54315736  0.04585204  0.25925411     0.93800
C38         C  0.45702879  0.94639432  0.26645375     0.93000
C39         C  0.45068033  0.04015083  0.25860039     0.85100
C40         C  0.54878269  0.95240735  0.26484575     0.91400
C41         C  0.72956595  0.77318255  0.25178576     0.02900
C42         C  0.75612170  0.77091770  0.27553690     0.02900
C43         C  0.77984705  0.74420014  0.27389584     0.02900
C44         C  0.77718675  0.72001453  0.24785500     0.02900
C45         C  0.75066473  0.72224702  0.22404207     0.02900
C46         C  0.72704544  0.74890958  0.22567966     0.02900
O47         O  0.03610933  0.69716204  0.54030895    -0.72400
O48         O  0.96454343  0.70255491  0.47057064    -0.73400
O49         O  0.03598646  0.69691142  0.46970721    -0.62000
O50         O  0.96571503  0.70406614  0.54159351    -0.70400
O51         O  0.96969048  0.75861195  0.53929037    -0.69900
O52         O  0.04093599  0.75184624  0.46997405    -0.61200
O53         O  0.97015745  0.75710003  0.46845571    -0.73700
O54         O  0.04026013  0.75227473  0.54034306    -0.72500
Cu55       Cu  0.00036653  0.69826137  0.50545371     1.04600
Cu56       Cu  0.00538447  0.75681476  0.50444396     1.04300
C57         C  0.04922138  0.72389840  0.55146153     0.93800
C58         C  0.95580191  0.73047213  0.45826349     0.93000
C59         C  0.05017893  0.72345204  0.45915584     0.85100
C60         C  0.95663021  0.73270330  0.55221389     0.91400
C61         C  0.22383593  0.72711180  0.76109878     0.02900
C62         C  0.22232392  0.74932213  0.73346602     0.02900
C63         C  0.24673472  0.77512845  0.72994820     0.02900
C64         C  0.27299585  0.77852262  0.75383110     0.02900
C65         C  0.27419016  0.75647673  0.78156863     0.02900
C66         C  0.25028991  0.73015504  0.78448723     0.02900
O67         O  0.45797302  0.03795934  0.74120967    -0.72400
O68         O  0.53017305  0.97069071  0.74654562    -0.73400
O69         O  0.52828174  0.04137902  0.74316810    -0.62000
O70         O  0.46023617  0.96724024  0.74390200    -0.70400
O71         O  0.45968907  0.96730759  0.68882017    -0.69900
O72         O  0.53274260  0.03655288  0.68846193    -0.61200
O73         O  0.53034933  0.96512199  0.69218405    -0.73700
O74         O  0.46172278  0.03903449  0.68655149    -0.72500
Cu75       Cu  0.49405385  0.00445224  0.74549480     1.04600
Cu76       Cu  0.49616478  0.00194985  0.68699159     1.04300
C77         C  0.44905766  0.05036215  0.71354999     0.93800
C78         C  0.54112002  0.95601173  0.72064367     0.93000
C79         C  0.54163293  0.05027741  0.71571539     0.85100
C80         C  0.44939058  0.95549639  0.71642869     0.91400
O81         O  0.24036760  0.46475714  0.96195218    -0.72400
O82         O  0.23808842  0.53316226  0.03511451    -0.73400
O83         O  0.24175636  0.53479949  0.96516577    -0.62000
O84         O  0.23597806  0.46210608  0.03209615    -0.70400
O85         O  0.29068574  0.46173916  0.03704006    -0.69900
O86         O  0.29664661  0.53239871  0.96592394    -0.61200
O87         O  0.29308169  0.53264934  0.03701451    -0.73700
O88         O  0.29540073  0.46199599  0.96652385    -0.72500
Cu89       Cu  0.23718863  0.49874921  0.99859159     1.04600
Cu90       Cu  0.29590680  0.49719386  0.00181754     1.04300
C91         C  0.26834683  0.45277574  0.95274281     0.93800
C92         C  0.26532143  0.54421668  0.04736345     0.93000
C93         C  0.26986197  0.54454965  0.95393400     0.85100
C94         C  0.26213419  0.45013788  0.04534754     0.91400
O95         O  0.76100985  0.53478237  0.96229434    -0.72400
O96         O  0.76095315  0.46086731  0.02874641    -0.73400
O97         O  0.75848442  0.46500933  0.95834404    -0.62000
O98         O  0.76305439  0.53051158  0.03294747    -0.70400
O99         O  0.70830894  0.53272399  0.03480099    -0.69900
O100        O  0.70372840  0.46704330  0.95957066    -0.61200
O101        O  0.70597836  0.46236626  0.03141123    -0.73700
O102        O  0.70613389  0.53717365  0.96466367    -0.72500
Cu103      Cu  0.76268598  0.49768760  0.99550763     1.04600
Cu104      Cu  0.70408154  0.49973117  0.99767475     1.04300
C105        C  0.73369679  0.54772058  0.95266726     0.93800
C106        C  0.73370880  0.45059881  0.04157510     0.93000
C107        C  0.73050444  0.45634711  0.94607743     0.85100
C108        C  0.73651080  0.54205943  0.04608230     0.91400
C109        C  0.77554718  0.75455229  0.73097432     0.02900
C110        C  0.75121203  0.78045027  0.72731898     0.02900
C111        C  0.72354717  0.78236464  0.74976044     0.02900
C112        C  0.72071662  0.75918979  0.77663253     0.02900
C113        C  0.74461746  0.73303199  0.78001671     0.02900
C114        C  0.77219304  0.73077236  0.75727487     0.02900
O115        O  0.75171865  0.96292327  0.53470427    -0.72400
O116        O  0.74755469  0.02886552  0.46025574    -0.73400
O117        O  0.75126709  0.95863321  0.46409243    -0.62000
O118        O  0.74826155  0.03303003  0.53040176    -0.70400
O119        O  0.80299907  0.03499780  0.53112301    -0.69900
O120        O  0.80650312  0.96192455  0.46276329    -0.61200
O121        O  0.80260819  0.03235544  0.46028998    -0.73700
O122        O  0.80691184  0.96455049  0.53379252    -0.72500
Cu123      Cu  0.74783388  0.99566195  0.49737864     1.04600
Cu124      Cu  0.80670477  0.99850714  0.49694620     1.04300
C125        C  0.77974142  0.95364670  0.54635538     0.93800
C126        C  0.77444309  0.04134067  0.44865108     0.93000
C127        C  0.77928426  0.94905957  0.45253354     0.85100
C128        C  0.77504589  0.04590857  0.54170392     0.91400
C129        C  0.77620629  0.27060632  0.24338402     0.02900
C130        C  0.77771967  0.24568234  0.26876786     0.02900
C131        C  0.75291627  0.22002672  0.27042499     0.02900
C132        C  0.72646820  0.21971737  0.24673818     0.02900
C133        C  0.72525569  0.24424978  0.22087662     0.02900
C134        C  0.74997097  0.26993875  0.21929885     0.02900
O135        O  0.96746548  0.52746140  0.20476450    -0.72400
O136        O  0.03949134  0.45895643  0.21791269    -0.73400
O137        O  0.96889565  0.45693640  0.21187459    -0.62000
O138        O  0.03804605  0.52846861  0.21041721    -0.70400
O139        O  0.03234179  0.53526269  0.26450673    -0.69900
O140        O  0.96480767  0.46167672  0.26675045    -0.61200
O141        O  0.03562224  0.46560079  0.27241094    -0.73700
O142        O  0.96272675  0.53190926  0.25951460    -0.72500
Cu143      Cu  0.00352062  0.49264048  0.20932778     1.04600
Cu144      Cu  0.99860918  0.49867038  0.26768279     1.04300
C145        C  0.95427784  0.54099705  0.23039751     0.99800
C146        C  0.04984433  0.45247329  0.24718658     0.93000
C147        C  0.95601153  0.44804781  0.23944421     0.85100
C148        C  0.04633993  0.54338407  0.23718178     0.91400
C149        C  0.27391758  0.77332729  0.25765543     0.02900
C150        C  0.24683333  0.76953538  0.28046810     0.02900
C151        C  0.22447043  0.74195875  0.27735002     0.02900
C152        C  0.22896330  0.71843163  0.25106179     0.02900
C153        C  0.25562724  0.72244582  0.22781152     0.02900
C154        C  0.27802653  0.74999273  0.23092306     0.02900
O155        O  0.25684861  0.03037361  0.54038188    -0.72400
O156        O  0.25582402  0.96265242  0.46599173    -0.73400
O157        O  0.25892503  0.03328960  0.47009082    -0.62000
O158        O  0.25476890  0.96071299  0.53644754    -0.70400
O159        O  0.19992729  0.96058046  0.53544763    -0.69900
O160        O  0.20421186  0.03538454  0.46816250    -0.61200
O161        O  0.20088760  0.96505930  0.46474423    -0.73700
O162        O  0.20167508  0.03158773  0.53915203    -0.72500
Cu163      Cu  0.25841154  0.99669016  0.50322291     1.04600
Cu164      Cu  0.19971548  0.99825293  0.50187894     1.04300
C165        C  0.22920920  0.04148637  0.55158624     0.93800
C166        C  0.22808550  0.95310629  0.45350525     0.93000
C167        C  0.23258552  0.04598211  0.45805427     0.85100
C168        C  0.22721537  0.94880587  0.54676789     0.91400
C169        C  0.27173901  0.22701154  0.74434331     0.02900
C170        C  0.24435174  0.22879829  0.72181108     0.02900
C171        C  0.22008913  0.25452466  0.72546806     0.02900
C172        C  0.22298927  0.27842800  0.75174209     0.02900
C173        C  0.25005145  0.27601089  0.77468619     0.02900
C174        C  0.27426140  0.24996225  0.77142004     0.02900
O175        O  0.03071692  0.54101506  0.80297214    -0.72400
O176        O  0.96347848  0.46647163  0.80484077    -0.73400
O177        O  0.03442060  0.46956088  0.80075700    -0.62000
O178        O  0.96042151  0.53800766  0.80650110    -0.70400
O179        O  0.95790953  0.53827362  0.75157189    -0.69900
O180        O  0.03179608  0.47139565  0.74590524    -0.61200
O181        O  0.96120321  0.46731320  0.74976378    -0.73700
O182        O  0.02771183  0.54245829  0.74849402    -0.72500
Cu183      Cu  0.99738619  0.50362055  0.80569419     1.04600
Cu184      Cu  0.99459533  0.50480466  0.74708997     1.04300
C185        C  0.03921682  0.55452234  0.77554181     0.93800
C186        C  0.95178690  0.45518969  0.77755928     0.93000
C187        C  0.04462698  0.45948430  0.77228559     0.85100
C188        C  0.94818384  0.54962294  0.77963149     0.91400
O189        O  0.46340429  0.26097517  0.96441340    -0.72400
O190        O  0.53877855  0.25873049  0.02999014    -0.73400
O191        O  0.53392153  0.25826589  0.95968720    -0.62000
O192        O  0.46856921  0.26172752  0.03494585    -0.70400
O193        O  0.46631947  0.20699621  0.03611787    -0.69900
O194        O  0.53249454  0.20336863  0.96030154    -0.61200
O195        O  0.53609161  0.20352129  0.03085143    -0.73700
O196        O  0.46077856  0.20631858  0.96508529    -0.72500
Cu197      Cu  0.50119361  0.26175261  0.99713730     1.04600
Cu198      Cu  0.49874414  0.20311773  0.99790564     1.04300
C199        C  0.44972307  0.23405898  0.95428254     0.93800
C200        C  0.54885678  0.23078637  0.04110276     0.93000
C201        C  0.54449555  0.23044729  0.94853083     0.85100
C202        C  0.45770498  0.23508596  0.04841327     0.91400
O203        O  0.53761795  0.80711070  0.03785222    -0.72400
O204        O  0.46058032  0.81077316  0.97271398    -0.73400
O205        O  0.46650027  0.80891066  0.04269526    -0.62000
O206        O  0.53196918  0.81079823  0.96725110    -0.70400
O207        O  0.53196047  0.75554463  0.96543172    -0.69900
O208        O  0.46462839  0.75369412  0.03991475    -0.61200
O209        O  0.46105289  0.75574910  0.96998310    -0.73700
O210        O  0.53525739  0.75210396  0.03579147    -0.72500
Cu211      Cu  0.49927660  0.81136614  0.00516198     1.04600
Cu212      Cu  0.49825543  0.75240927  0.00265992     1.04300
C213        C  0.54840814  0.77868385  0.04729406     0.93800
C214        C  0.44821974  0.78348129  0.96161093     0.93000
C215        C  0.45477110  0.78115266  0.05265956     0.85100
C216        C  0.54258838  0.78358797  0.95476061     0.91400
C217        C  0.38195629  0.20679692  0.89164171    -0.04900
C218        C  0.36738888  0.23741671  0.88319848     0.09200
C219        C  0.37895238  0.26683709  0.89845064    -0.02300
C220        C  0.40527720  0.26588900  0.92168246    -0.00500
C221        C  0.42087865  0.23512558  0.93000481    -0.04200
C222        C  0.40863078  0.20551442  0.91450140     0.02900
C223        C  0.34356615  0.23934482  0.85452061     0.09700
C224        C  0.36450198  0.29851919  0.88904764     0.35600
C225        C  0.42410898  0.17350475  0.92037221     0.39000
C226        C  0.30968201  0.23102016  0.85804074    -0.04500
C227        C  0.28800238  0.23276861  0.83043355     0.02600
C228        C  0.29941202  0.24457706  0.79915280    -0.04100
C229        C  0.33403855  0.25182528  0.79582615    -0.00400
C230        C  0.35572836  0.24880387  0.82320854    -0.02900
C231        C  0.29720094  0.22040224  0.89012218     0.36300
C232        C  0.34897186  0.26294208  0.76521643     0.39900
C233        C  0.25447208  0.21992756  0.83383762     0.39100
C234        C  0.39116202  0.25546522  0.81928741     0.36000
C235        C  0.37018113  0.17658419  0.87557538     0.36700
C236        C  0.41636882  0.29720002  0.93600998     0.39900
N237        N  0.22828887  0.20815457  0.83662887    -0.38100
N238        N  0.28723374  0.21191048  0.91572551    -0.39700
N239        N  0.36471688  0.27239920  0.74305106    -0.37500
N240        N  0.41935979  0.26069281  0.81630677    -0.39800
N241        N  0.35329752  0.32382037  0.88133442    -0.39600
N242        N  0.42515118  0.32237272  0.94704782    -0.37300
N243        N  0.43636458  0.14785516  0.92466989    -0.38300
N244        N  0.36060896  0.15260522  0.86271555    -0.40000
C245        C  0.17812623  0.36362784  0.74749095    -0.04900
C246        C  0.14701158  0.35623815  0.76192101     0.09200
C247        C  0.14086864  0.32373023  0.77338408    -0.02300
C248        C  0.16522312  0.29858252  0.76969128    -0.00500
C249        C  0.19691010  0.30572848  0.75551468    -0.04200
C250        C  0.20313449  0.33894583  0.74499385     0.02900
C251        C  0.12061304  0.38273272  0.76486388     0.09700
C252        C  0.10937582  0.31631412  0.78956097     0.35600
C253        C  0.23497023  0.34886804  0.73150422     0.39000
C254        C  0.09259312  0.38204005  0.74379709    -0.04500
C255        C  0.06821081  0.40727899  0.74582436     0.02600
C256        C  0.07107671  0.43328144  0.76962132    -0.04100
C257        C  0.09912164  0.43374953  0.79090330    -0.00400
C258        C  0.12368093  0.40863161  0.78851356    -0.02900
C259        C  0.08844358  0.35474807  0.72046464     0.36300
C260        C  0.10348503  0.46071204  0.81456508     0.39900
C261        C  0.03962135  0.40566335  0.72391699     0.39100
C262        C  0.15206523  0.40916454  0.81069867     0.36000
C263        C  0.18425792  0.39688461  0.73478242     0.36700
C264        C  0.15757242  0.26583121  0.78235037     0.39900
N265        N  0.01679257  0.40426299  0.70649248    -0.38100
N266        N  0.08485541  0.33261045  0.70236142    -0.39700
N267        N  0.10703662  0.48224156  0.83340596    -0.37500
N268        N  0.17475742  0.40952816  0.82833199    -0.39800
N269        N  0.08423987  0.31050937  0.80244504    -0.39600
N270        N  0.15038170  0.24049490  0.79395137    -0.37300
N271        N  0.25932801  0.35951323  0.72035908    -0.38300
N272        N  0.18910792  0.42337943  0.72464676    -0.40000
C273        C  0.22063546  0.14356616  0.68490320    -0.04900
C274        C  0.23553462  0.14477531  0.65317813     0.09200
C275        C  0.25330785  0.17345377  0.64388986    -0.02300
C276        C  0.25272984  0.20215165  0.66411034    -0.00500
C277        C  0.23949764  0.20080839  0.69686634    -0.04200
C278        C  0.22437514  0.17057910  0.70726705     0.02900
C279        C  0.23166801  0.11678849  0.62858085     0.09700
C280        C  0.27264461  0.17323698  0.61328882     0.35600
C281        C  0.21264151  0.16687990  0.74107660     0.39000
C282        C  0.21336449  0.12191898  0.59906288    -0.04500
C283        C  0.21145382  0.09675251  0.57468025     0.02600
C284        C  0.22905066  0.06667880  0.57874395    -0.04100
C285        C  0.24730410  0.06140244  0.60824184    -0.00400
C286        C  0.24845248  0.08628687  0.63314456    -0.02900
C287        C  0.19857497  0.15409497  0.59239418     0.36300
C288        C  0.26450901  0.03013068  0.61322082     0.39900
C289        C  0.19255075  0.10264160  0.54461484     0.39100
C290        C  0.26802896  0.08105122  0.66286992     0.36000
C291        C  0.20148377  0.11450669  0.69456260     0.36700
C292        C  0.26498029  0.23242489  0.64932335     0.39900
N293        N  0.17731572  0.10750181  0.52079744    -0.38100
N294        N  0.18788761  0.18001267  0.58610485    -0.39700
N295        N  0.27818520  0.00515084  0.61716787    -0.37500
N296        N  0.28357604  0.07692269  0.68663772    -0.39800
N297        N  0.28822893  0.17288461  0.58907619    -0.39600
N298        N  0.27523300  0.25453811  0.63403398    -0.37300
N299        N  0.20284720  0.16344746  0.76790604    -0.38300
N300        N  0.18616069  0.09133535  0.70227241    -0.40000
C301        C  0.32542415  0.79177168  0.15907308    -0.04900
C302        C  0.35139725  0.76897934  0.15276269     0.09200
C303        C  0.35259477  0.73941598  0.17125955    -0.02300
C304        C  0.33169083  0.73516491  0.19900376    -0.00500
C305        C  0.30396617  0.75646130  0.20421998    -0.04200
C306        C  0.30045104  0.78410676  0.18266833     0.02900
C307        C  0.37794790  0.77567676  0.12723984     0.09700
C308        C  0.37588856  0.71329123  0.16201092     0.35600
C309        C  0.27030864  0.80368744  0.18288498     0.39000
C310        C  0.41196610  0.77666159  0.13669304    -0.04500
C311        C  0.43717928  0.77770639  0.11226755     0.02600
C312        C  0.42865707  0.78085840  0.07854753    -0.04100
C313        C  0.39489268  0.78308752  0.06937743    -0.00400
C314        C  0.36965176  0.77845754  0.09328665    -0.02900
C315        C  0.42114411  0.77564186  0.17152572     0.36300
C316        C  0.38598052  0.79105311  0.03550489     0.39900
C317        C  0.47184047  0.77485426  0.12181046     0.39100
C318        C  0.33534642  0.77495998  0.08261046     0.36000
C319        C  0.32428613  0.82316543  0.14142887     0.36700
C320        C  0.34253165  0.71120724  0.22312397     0.39900
N321        N  0.49937953  0.77211964  0.12965259    -0.38100
N322        N  0.42843447  0.77468660  0.19928858    -0.39700
N323        N  0.37835044  0.79844436  0.00887376    -0.37500
N324        N  0.30799728  0.77210510  0.07408055    -0.39800
N325        N  0.39437932  0.69249492  0.15461203    -0.39600
N326        N  0.35534310  0.69236643  0.24052819    -0.37300
N327        N  0.24599340  0.81895015  0.18129297    -0.38300
N328        N  0.32343125  0.84828316  0.12749132    -0.40000
C329        C  0.25056347  0.82229945  0.36041783    -0.04900
C330        C  0.22967240  0.84902932  0.35217280     0.09200
C331        C  0.21284063  0.84870611  0.32157405    -0.02300
C332        C  0.21733218  0.82195690  0.29911313    -0.00500
C333        C  0.24016941  0.79610062  0.30621777    -0.04200
C334        C  0.25671655  0.79657909  0.33727663     0.02900
C335        C  0.22704922  0.87809062  0.37549302     0.09700
C336        C  0.19175499  0.87651337  0.31278690     0.35600
C337        C  0.28101621  0.77176444  0.34603672     0.39000
C338        C  0.25321494  0.90149631  0.37724636    -0.04500
C339        C  0.25333798  0.92632484  0.40215044     0.02600
C340        C  0.22723530  0.92786188  0.42593562    -0.04100
C341        C  0.20020383  0.90505327  0.42304071    -0.00400
C342        C  0.20009328  0.88055711  0.39776788    -0.02900
C343        C  0.28017543  0.89987684  0.35325381     0.36300
C344        C  0.17288808  0.90559006  0.44670618     0.39900
C345        C  0.28016766  0.95057664  0.40258093     0.39100
C346        C  0.17236874  0.85750786  0.39482427     0.36000
C347        C  0.26596480  0.82150226  0.39300419     0.36700
C348        C  0.20041605  0.82272169  0.26742127     0.39900
N349        N  0.30168909  0.96980033  0.40270975    -0.38100
N350        N  0.30160492  0.89861733  0.33405401    -0.39700
N351        N  0.15100571  0.90593488  0.46546435    -0.37500
N352        N  0.15009798  0.83935001  0.39219865    -0.39800
N353        N  0.17504201  0.89877729  0.30571690    -0.39600
N354        N  0.18788239  0.82457480  0.24165480    -0.37300
N355        N  0.30100200  0.75355793  0.35564907    -0.38300
N356        N  0.27798472  0.82084291  0.41906686    -0.40000
C357        C  0.10696745  0.61038911  0.20584509    -0.04900
C358        C  0.12332189  0.61966645  0.23542683     0.09200
C359        C  0.11428311  0.60405752  0.26559934    -0.02300
C360        C  0.08989056  0.57882610  0.26607379    -0.00500
C361        C  0.07259460  0.57000983  0.23657343    -0.04200
C362        C  0.08122776  0.58641869  0.20647526     0.02900
C363        C  0.15150784  0.64426698  0.23496655     0.09700
C364        C  0.13111316  0.61299162  0.29632935     0.35600
C365        C  0.06383260  0.57909625  0.17573080     0.39000
C366        C  0.14685697  0.67771007  0.22549847    -0.04500
C367        C  0.17387440  0.70020409  0.22678534     0.02600
C368        C  0.20281662  0.69208176  0.24500990    -0.04100
C369        C  0.20612455  0.65885627  0.25634890    -0.00400
C370        C  0.18292534  0.63451539  0.24665449    -0.02900
C371        C  0.11425634  0.68943567  0.21566528     0.36300
C372        C  0.23006177  0.64895421  0.28093259     0.39900
C373        C  0.17152840  0.73140632  0.20920109     0.39100
C374        C  0.19075362  0.59940451  0.25025839     0.36000
C375        C  0.11721625  0.62481975  0.17442261     0.36700
C376        C  0.08422870  0.56105566  0.29693734     0.39900
N377        N  0.16874580  0.75610164  0.19480097    -0.38100
N378        N  0.08821766  0.69891215  0.20803761    -0.39700
N379        N  0.24700372  0.63765193  0.30111465    -0.37500
N380        N  0.19699773  0.57143773  0.25289415    -0.39800
N381        N  0.14497394  0.61960460  0.32063317    -0.39600
N382        N  0.08004782  0.54691082  0.32161257    -0.37300
N383        N  0.05017781  0.57334280  0.15111014    -0.38300
N384        N  0.12522196  0.63641740  0.14934975    -0.40000
C385        C  0.64975134  0.26268565  0.16452267    -0.04900
C386        C  0.64940321  0.23440198  0.14392864     0.09200
C387        C  0.67364214  0.20962456  0.14813027    -0.02300
C388        C  0.69871455  0.21350864  0.17230252    -0.00500
C389        C  0.69879022  0.24140909  0.19414270    -0.04200
C390        C  0.67356569  0.26587228  0.19000356     0.02900
C391        C  0.62385044  0.23140701  0.11714242     0.09700
C392        C  0.67300980  0.18021744  0.12709749     0.35600
C393        C  0.67014889  0.29408670  0.21203400     0.39000
C394        C  0.63282977  0.23738120  0.08376635    -0.04500
C395        C  0.60841954  0.23640021  0.05870467     0.02600
C396        C  0.57485458  0.23005157  0.06697122    -0.04100
C397        C  0.56591144  0.22370712  0.10029545    -0.00400
C398        C  0.59035475  0.22436666  0.12532367    -0.02900
C399        C  0.66710739  0.24530375  0.07539289     0.36300
C400        C  0.53141440  0.21727004  0.10901041     0.39900
C401        C  0.61801762  0.24125725  0.02435217     0.39100
C402        C  0.58095295  0.21863691  0.15965920     0.36000
C403        C  0.62531877  0.28876485  0.15930977     0.36700
C404        C  0.72600824  0.19008516  0.17213261     0.39900
N405        N  0.62614662  0.24478006  0.99701402    -0.38100
N406        N  0.69448504  0.25159412  0.06885744    -0.39700
N407        N  0.50397654  0.21211809  0.11623564    -0.37500
N408        N  0.57346630  0.21430986  0.18708060    -0.39800
N409        N  0.67244350  0.15674783  0.11036613    -0.39600
N410        N  0.74813232  0.17186305  0.16970218    -0.37300
N411        N  0.66420077  0.31705590  0.22838238    -0.38300
N412        N  0.60589367  0.30952167  0.15509097    -0.40000
C413        C  0.84917864  0.32367055  0.21087914    -0.04900
C414        C  0.85356345  0.34670840  0.23687987     0.09200
C415        C  0.83278156  0.34515518  0.26499466    -0.02300
C416        C  0.80692649  0.32150101  0.26670998    -0.00500
C417        C  0.80294005  0.29719111  0.24126370    -0.04200
C418        C  0.82500523  0.29828451  0.21359670     0.02900
C419        C  0.88032038  0.37258922  0.23529491     0.09700
C420        C  0.83776770  0.36856255  0.29218230     0.35600
C421        C  0.82547708  0.27186832  0.18910637     0.39000
C422        C  0.87163842  0.40660304  0.23397388    -0.04500
C423        C  0.89633264  0.43118579  0.23772981     0.02600
C424        C  0.93011601  0.42204786  0.23936014    -0.04100
C425        C  0.93905609  0.38815298  0.23951299    -0.00400
C426        C  0.91411124  0.36342257  0.23848536    -0.02900
C427        C  0.83713700  0.41629083  0.22957928     0.36300
C428        C  0.97383480  0.37879458  0.24170776     0.39900
C429        C  0.88673305  0.46566609  0.24208044     0.39100
C430        C  0.92309420  0.32863507  0.24158950     0.36000
C431        C  0.86985818  0.32592733  0.18133447     0.36700
C432        C  0.78401592  0.32434466  0.29427110     0.39900
N433        N  0.87858555  0.49287971  0.24671542    -0.38100
N434        N  0.80961581  0.42397619  0.22618937    -0.39700
N435        N  0.00156254  0.37128486  0.24345399    -0.37500
N436        N  0.93015717  0.30085279  0.24400449    -0.39800
N437        N  0.84161423  0.38756609  0.31349883    -0.39600
N438        N  0.76671870  0.32992146  0.31661032    -0.37300
N439        N  0.82846547  0.25064925  0.16984243    -0.38300
N440        N  0.88634237  0.32763762  0.15778051    -0.40000
C441        C  0.74913786  0.08728022  0.36965403    -0.04900
C442        C  0.76934497  0.11600328  0.37148387     0.09200
C443        C  0.79101983  0.12032302  0.39862458    -0.02300
C444        C  0.79333164  0.09559155  0.42331855    -0.00500
C445        C  0.77289174  0.06681258  0.42178905    -0.04200
C446        C  0.75036196  0.06310078  0.39496741     0.02900
C447        C  0.76569962  0.14288490  0.34603105     0.09700
C448        C  0.80956252  0.15113210  0.40211983     0.35600
C449        C  0.72852137  0.03431803  0.39301103     0.39000
C450        C  0.73905063  0.16525672  0.34847779    -0.04500
C451        C  0.73358479  0.18917760  0.32347310     0.02600
C452        C  0.75616991  0.19249625  0.29626315    -0.04100
C453        C  0.78327522  0.16977506  0.29442407    -0.00400
C454        C  0.78773877  0.14508339  0.31895622    -0.02900
C455        C  0.71744580  0.16388687  0.37748663     0.36300
C456        C  0.80517255  0.16939060  0.26582348     0.39900
C457        C  0.70481226  0.21024298  0.32753444     0.39100
C458        C  0.81471593  0.12130483  0.31608190     0.36000
C459        C  0.72658923  0.08301732  0.34185265     0.36700
C460        C  0.81553330  0.10080067  0.45123317     0.39900
N461        N  0.68152281  0.22578682  0.33420125    -0.38100
N462        N  0.70049712  0.16287293  0.40075170    -0.39700
N463        N  0.82212517  0.16683686  0.24268608    -0.37500
N464        N  0.83615594  0.10225047  0.31382713    -0.39800
N465        N  0.82395144  0.17589282  0.40543287    -0.39600
N466        N  0.83325975  0.10495930  0.47347484    -0.37300
N467        N  0.71101964  0.01143638  0.39135310    -0.38300
N468        N  0.70863784  0.07979505  0.31964385    -0.40000
C469        C  0.64368890  0.74664748  0.83339891    -0.04900
C470        C  0.64348689  0.77665685  0.85151848     0.09200
C471        C  0.66855801  0.80050025  0.84558791    -0.02300
C472        C  0.69424236  0.79385859  0.82250054    -0.00500
C473        C  0.69370477  0.76451508  0.80265179    -0.04200
C474        C  0.66763674  0.74110436  0.80825986     0.02900
C475        C  0.61772224  0.78198140  0.87808320     0.09700
C476        C  0.66840763  0.83164522  0.86394442     0.35600
C477        C  0.66392723  0.71131057  0.78843888     0.39000
C478        C  0.62680415  0.78042902  0.91189324    -0.04500
C479        C  0.60227108  0.78291115  0.93687600     0.02600
C480        C  0.56828948  0.78453674  0.92831588    -0.04100
C481        C  0.55913802  0.78667784  0.89459297    -0.00400
C482        C  0.58385997  0.78617595  0.86956268    -0.02900
C483        C  0.66131149  0.77522143  0.92100060     0.36300
C484        C  0.52429816  0.78893800  0.88561187     0.39900
C485        C  0.61216880  0.78470193  0.97140417     0.39100
C486        C  0.57449819  0.78939445  0.83495892     0.36000
C487        C  0.61935802  0.72095713  0.84122162     0.36700
C488        C  0.72317567  0.81546682  0.82238160     0.39900
N489        N  0.62055397  0.78697733  0.99876528    -0.38100
N490        N  0.68884078  0.77105602  0.92822529    -0.39700
N491        N  0.49654105  0.79055936  0.87821218    -0.37500
N492        N  0.56716175  0.79194011  0.80732036    -0.39800
N493        N  0.66830275  0.85648865  0.87857400    -0.39600
N494        N  0.74675581  0.83195426  0.82441623    -0.37300
N495        N  0.65801429  0.68715781  0.77386406    -0.38300
N496        N  0.60003488  0.70051231  0.84758930    -0.40000
C497        C  0.82552084  0.65132505  0.74594803    -0.04900
C498        C  0.84640737  0.65280581  0.77385760     0.09200
C499        C  0.84291378  0.67930762  0.79653096    -0.02300
C500        C  0.81893302  0.70444096  0.79111262    -0.00500
C501        C  0.79840412  0.70390344  0.76235882    -0.04200
C502        C  0.80236714  0.67692369  0.73967120     0.02900
C503        C  0.87370578  0.62758235  0.77766291     0.09700
C504        C  0.86469532  0.68107736  0.82514871     0.35600
C505        C  0.78243058  0.67378567  0.71004840     0.39000
C506        C  0.90173908  0.62900756  0.75651605    -0.04500
C507        C  0.92617755  0.60390492  0.75761302     0.02600
C508        C  0.92324880  0.57722066  0.78041346    -0.04100
C509        C  0.89612164  0.57695159  0.80297671    -0.00400
C510        C  0.87098891  0.60147760  0.80090431    -0.02900
C511        C  0.90505924  0.65613576  0.73301254     0.36300
C512        C  0.89336760  0.55096996  0.82773732     0.39900
C513        C  0.95481771  0.60623082  0.73565647     0.39100
C514        C  0.84146264  0.59887699  0.82149672     0.36000
C515        C  0.82776814  0.62286208  0.72367806     0.36700
C516        C  0.81743826  0.73202425  0.81429011     0.39900
N517        N  0.97755771  0.60824252  0.71805010    -0.38100
N518        N  0.90756315  0.67764523  0.71414596    -0.39700
N519        N  0.89115128  0.53031494  0.84758070    -0.37500
N520        N  0.81774117  0.59637948  0.83766585    -0.39800
N521        N  0.88206488  0.68242780  0.84798491    -0.39600
N522        N  0.81811513  0.75422676  0.83264984    -0.37300
N523        N  0.76743768  0.66817452  0.68619391    -0.38300
N524        N  0.82950870  0.60010649  0.70606887    -0.40000
C525        C  0.74131011  0.83583263  0.64955254    -0.04900
C526        C  0.76896875  0.85708934  0.65259588     0.09200
C527        C  0.79011392  0.85411801  0.68014384    -0.02300
C528        C  0.78386304  0.82964697  0.70448933    -0.00500
C529        C  0.75657272  0.80723954  0.70130718    -0.04200
C530        C  0.73504671  0.81104180  0.67353886     0.02900
C531        C  0.77486902  0.88343240  0.62705489     0.09700
C532        C  0.81775331  0.87713376  0.68392077     0.35600
C533        C  0.70658727  0.78964847  0.66812847     0.39000
C534        C  0.75754504  0.91380846  0.62914889    -0.04500
C535        C  0.75993395  0.93712349  0.60317918     0.02600
C536        C  0.78023457  0.93050623  0.57513210    -0.04100
C537        C  0.79958692  0.90115104  0.57435511    -0.00400
C538        C  0.79606235  0.87722361  0.59974691    -0.02900
C539        C  0.73665796  0.92068965  0.65781065     0.36300
C540        C  0.82250569  0.89502967  0.54713776     0.39900
C541        C  0.74210123  0.96835717  0.60584282     0.39100
C542        C  0.81286858  0.84545131  0.59702371     0.36000
C543        C  0.71911906  0.83968867  0.62139364     0.36700
C544        C  0.80362931  0.83022192  0.73448723     0.39900
N545        N  0.72791355  0.99327367  0.60820514    -0.38100
N546        N  0.72003310  0.92616330  0.68068414    -0.39700
N547        N  0.84099538  0.89010670  0.52559080    -0.37500
N548        N  0.82583308  0.81987621  0.59465181    -0.39800
N549        N  0.83971267  0.89559407  0.68694632    -0.39600
N550        N  0.81863206  0.83280529  0.75883791    -0.37300
N551        N  0.68369595  0.77367075  0.66091740    -0.38300
N552        N  0.70145860  0.84290534  0.59899449    -0.40000
C553        C  0.76476258  0.40088389  0.11613819    -0.04900
C554        C  0.73993037  0.37624654  0.11942649     0.09200
C555        C  0.71226622  0.37658496  0.09784709    -0.02300
C556        C  0.70991723  0.40075608  0.07251606    -0.00500
C557        C  0.73488336  0.42552799  0.06905448    -0.04200
C558        C  0.76164296  0.42610347  0.09205212     0.02900
C559        C  0.74330317  0.34933827  0.14506652     0.09700
C560        C  0.68650954  0.35143667  0.10128199     0.35600
C561        C  0.78534377  0.45347684  0.09216638     0.39000
C562        C  0.73787827  0.35622096  0.17893847    -0.04500
C563        C  0.74024466  0.33062313  0.20285228     0.02600
C564        C  0.74771748  0.29733059  0.19324423    -0.04100
C565        C  0.75293748  0.29082227  0.15881088    -0.00400
C566        C  0.75142164  0.31675568  0.13523634    -0.02900
C567        C  0.72900271  0.38975359  0.18910144     0.36300
C568        C  0.76090425  0.25799114  0.14649380     0.39900
C569        C  0.73164048  0.33862781  0.23684800     0.39100
C570        C  0.75884662  0.31009506  0.10050904     0.36000
C571        C  0.79427981  0.39952004  0.13674335     0.36700
C572        C  0.68213648  0.39936891  0.04963458     0.39900
N573        N  0.72264765  0.34630090  0.26308790    -0.38100
N574        N  0.72197036  0.41649032  0.19719815    -0.39700
N575        N  0.76828359  0.23312177  0.13397669    -0.37500
N576        N  0.76484095  0.30489633  0.07285003    -0.39800
N577        N  0.66611189  0.33121515  0.10386173    -0.39600
N578        N  0.65987969  0.39817006  0.03148146    -0.37300
N579        N  0.80401274  0.47547910  0.09249400    -0.38300
N580        N  0.81808537  0.39819061  0.15277538    -0.40000
C581        C  0.70723931  0.60510368  0.88154155    -0.04900
C582        C  0.73557949  0.62563787  0.87799934     0.09200
C583        C  0.76307272  0.62097922  0.89922694    -0.02300
C584        C  0.76207953  0.59640701  0.92414638    -0.00500
C585        C  0.73410366  0.57488828  0.92717751    -0.04200
C586        C  0.70676464  0.57936230  0.90532566     0.02900
C587        C  0.73601367  0.65325351  0.85296238     0.09700
C588        C  0.79241782  0.64191395  0.89568545     0.35600
C589        C  0.67822280  0.55714982  0.90642667     0.39000
C590        C  0.73667939  0.68662520  0.86372946    -0.04500
C591        C  0.74101333  0.71264096  0.84066333     0.02600
C592        C  0.73992504  0.70603364  0.80593172    -0.04100
C593        C  0.73490037  0.67257518  0.79555300    -0.00400
C594        C  0.73573119  0.64632239  0.81864892    -0.02900
C595        C  0.73319789  0.69414945  0.89889772     0.36300
C596        C  0.72534990  0.66504871  0.76171517     0.39900
C597        C  0.74830264  0.74530070  0.85391293     0.39100
C598        C  0.73637911  0.61213247  0.80695557     0.36000
C599        C  0.67819814  0.61088358  0.86099332     0.36700
C600        C  0.78955441  0.59451079  0.94738777     0.39900
N601        N  0.75493688  0.77000552  0.86720886    -0.38100
N602        N  0.73038135  0.69999144  0.92692049    -0.39700
N603        N  0.71557490  0.65840501  0.73551517    -0.37500
N604        N  0.73703227  0.58489977  0.79752486    -0.39800
N605        N  0.81569616  0.65872929  0.89289983    -0.39600
N606        N  0.81149050  0.59326200  0.96590122    -0.37300
N607        N  0.65540500  0.53949817  0.90715788    -0.38300
N608        N  0.65514256  0.61552779  0.84450392    -0.40000
C609        C  0.26546943  0.41446095  0.86665612    -0.04900
C610        C  0.26936730  0.38041990  0.87405718     0.09200
C611        C  0.27449022  0.37036739  0.90725297    -0.02300
C612        C  0.27346986  0.39400826  0.93308721    -0.00500
C613        C  0.26951373  0.42801081  0.92568436    -0.04200
C614        C  0.26661840  0.43828202  0.89235164     0.02900
C615        C  0.26427959  0.35469040  0.84774392     0.09700
C616        C  0.27960324  0.33545585  0.91487807     0.35600
C617        C  0.26549111  0.47333922  0.88426196     0.39000
C618        C  0.28751978  0.35015984  0.82191588    -0.04500
C619        C  0.28188813  0.32562333  0.79740783     0.02600
C620        C  0.25498392  0.30282197  0.80055652    -0.04100
C621        C  0.23279856  0.30680228  0.82780590    -0.00400
C622        C  0.23600590  0.33412875  0.84940651    -0.02900
C623        C  0.31709371  0.37092782  0.82043087     0.36300
C624        C  0.20813782  0.28223356  0.83663984     0.39900
C625        C  0.30283254  0.32554650  0.76812046     0.39100
C626        C  0.21015082  0.34099104  0.87387069     0.36000
C627        C  0.25914456  0.42486387  0.83278693     0.36700
C628        C  0.27478134  0.38306745  0.96731256     0.39900
N629        N  0.31918197  0.32724088  0.74448044    -0.38100
N630        N  0.34068145  0.38749929  0.81926475    -0.39700
N631        N  0.18836012  0.26434284  0.84756566    -0.37500
N632        N  0.18954626  0.34653936  0.89324426    -0.39800
N633        N  0.28353164  0.30758891  0.92083866    -0.39600
N634        N  0.27526363  0.37383492  0.99447248    -0.37300
N635        N  0.26525574  0.50114758  0.87700324    -0.38300
N636        N  0.25408208  0.43308451  0.80576322    -0.40000
C637        C  0.23857957  0.59641497  0.12265098    -0.04900
C638        C  0.26417418  0.62036138  0.12415783     0.09200
C639        C  0.29007901  0.61967084  0.10055013    -0.02300
C640        C  0.29066709  0.59483696  0.07565044    -0.00500
C641        C  0.26480180  0.57066088  0.07374051    -0.04200
C642        C  0.23850192  0.57202862  0.09735321     0.02900
C643        C  0.26329651  0.64697031  0.15024130     0.09700
C644        C  0.31600417  0.64489502  0.10178603     0.35600
C645        C  0.21123687  0.54833853  0.09620416     0.39000
C646        C  0.27684869  0.64117840  0.18181458    -0.04500
C647        C  0.27509513  0.66595782  0.20669761     0.02600
C648        C  0.25991277  0.69713393  0.20021428    -0.04100
C649        C  0.24758578  0.70308895  0.16778210    -0.00400
C650        C  0.24874711  0.67791071  0.14325621    -0.02900
C651        C  0.29257675  0.60947049  0.18861860     0.36300
C652        C  0.23372787  0.73482968  0.15858170     0.39900
C653        C  0.29010160  0.65921147  0.23853526     0.39100
C654        C  0.23441958  0.68355014  0.11069722     0.36000
C655        C  0.21234934  0.59680251  0.14747552     0.36700
C656        C  0.31755693  0.59517406  0.05154166     0.39900
N657        N  0.30307613  0.65297704  0.26335585    -0.38100
N658        N  0.30512087  0.58416615  0.19393194    -0.39700
N659        N  0.22232010  0.75918265  0.14856886    -0.37500
N660        N  0.22288251  0.68791269  0.08478931    -0.39800
N661        N  0.33653297  0.66514280  0.10270956    -0.39600
N662        N  0.33927442  0.59566790  0.03260520    -0.37300
N663        N  0.18905159  0.52993476  0.09541193    -0.38300
N664        N  0.19160817  0.59690822  0.16745765    -0.40000
C665        C  0.37948837  0.11042776  0.68713139    -0.04900
C666        C  0.37726628  0.13130417  0.71525658     0.09200
C667        C  0.39984979  0.12717871  0.74155681    -0.02300
C668        C  0.42200679  0.10012405  0.74165101    -0.00500
C669        C  0.42455076  0.07863808  0.71351057    -0.04200
C670        C  0.40353616  0.08472437  0.68582823     0.02900
C671        C  0.34867640  0.15479111  0.71995573     0.09700
C672        C  0.39964733  0.15068876  0.76910428     0.35600
C673        C  0.40519413  0.06374774  0.65649982     0.39000
C674        C  0.32437688  0.14724004  0.74409284    -0.04500
C675        C  0.30064231  0.17118412  0.75370862     0.02600
C676        C  0.29909318  0.20227843  0.73730110    -0.04100
C677        C  0.32271576  0.20910667  0.71189947    -0.00400
C678        C  0.34770982  0.18574422  0.70373164    -0.02900
C679        C  0.32431137  0.11460446  0.75959553     0.36300
C680        C  0.32289302  0.24121099  0.69562944     0.39900
C681        C  0.27912334  0.16311552  0.78131209     0.39100
C682        C  0.37296199  0.19386502  0.67924621     0.36000
C683        C  0.35651133  0.11502055  0.65982911     0.36700
C684        C  0.44134489  0.09450867  0.77150969     0.39900
N685        N  0.26361999  0.15384337  0.80370691    -0.38100
N686        N  0.32437540  0.08861244  0.77187608    -0.39700
N687        N  0.32406913  0.26721979  0.68340083    -0.37500
N688        N  0.39306245  0.20033323  0.65963916    -0.39800
N689        N  0.39948708  0.16958340  0.79086132    -0.39600
N690        N  0.45644963  0.09016203  0.79553145    -0.37300
N691        N  0.40639388  0.04720831  0.63293747    -0.38300
N692        N  0.33828278  0.11882458  0.63798411    -0.40000
C693        C  0.67224883  0.86358535  0.74404188    -0.04900
C694        C  0.64069059  0.85109209  0.73556755     0.09200
C695        C  0.63627674  0.81667930  0.73088624    -0.02300
C696        C  0.66339474  0.79472993  0.73485718    -0.00500
C697        C  0.69541047  0.80689847  0.74399133    -0.04200
C698        C  0.69947167  0.84189618  0.74813825     0.02900
C699        C  0.61244758  0.87492807  0.73123268     0.09700
C700        C  0.60379879  0.80396361  0.72148750     0.35600
C701        C  0.73083675  0.85687666  0.75737070     0.39000
C702        C  0.60503800  0.88750879  0.69956322    -0.04500
C703        C  0.58218041  0.91393160  0.69589487     0.02600
C704        C  0.56584184  0.92789537  0.72414690    -0.04100
C705        C  0.57308042  0.91415629  0.75603921    -0.00400
C706        C  0.59610283  0.88791996  0.75929791    -0.02900
C707        C  0.62173309  0.87354093  0.67071401     0.36300
C708        C  0.55741310  0.92663169  0.78614487     0.39900
C709        C  0.57684827  0.92712176  0.66287207     0.39100
C710        C  0.60367875  0.87459804  0.79188855     0.36000
C711        C  0.67651250  0.89924381  0.74881395     0.36700
C712        C  0.65871930  0.75992619  0.72652442     0.39900
N713        N  0.57289961  0.93751481  0.63641712    -0.38100
N714        N  0.63502774  0.86214826  0.64783474    -0.39700
N715        N  0.54516451  0.93637722  0.81034191    -0.37500
N716        N  0.60969629  0.86414979  0.81790822    -0.39800
N717        N  0.57790750  0.79385084  0.71387706    -0.39600
N718        N  0.65471338  0.73267254  0.71802181    -0.37300
N719        N  0.75420828  0.87181925  0.76520594    -0.38300
N720        N  0.67969095  0.92762755  0.75269968    -0.40000
C721        C  0.35386703  0.76058056  0.83495657    -0.04900
C722        C  0.34127257  0.77312631  0.86517829     0.09200
C723        C  0.30706990  0.78021316  0.86799126    -0.02300
C724        C  0.28562307  0.77484782  0.84069574    -0.00500
C725        C  0.29812480  0.76253599  0.80998028    -0.04200
C726        C  0.33272977  0.75584238  0.80738147     0.02900
C727        C  0.36484472  0.77939729  0.89342538     0.09700
C728        C  0.29406743  0.79372418  0.89883690     0.35600
C729        C  0.34775693  0.74434541  0.77681634     0.39000
C730        C  0.38797367  0.80586611  0.89161129    -0.04500
C731        C  0.41436369  0.80820661  0.91464216     0.02600
C732        C  0.41845143  0.78341510  0.93922751    -0.04100
C733        C  0.39382825  0.75805009  0.94216358    -0.00400
C734        C  0.36674070  0.75672424  0.91992664    -0.02900
C735        C  0.38489663  0.83032217  0.86538683     0.36300
C736        C  0.39571677  0.73347520  0.96844284     0.39900
C737        C  0.43799246  0.83541346  0.91185887     0.39100
C738        C  0.34043435  0.73235406  0.92460095     0.36000
C739        C  0.38901171  0.75237877  0.83235853     0.36700
C740        C  0.25123462  0.78538612  0.84335435     0.39900
N741        N  0.45675168  0.85721861  0.90960177    -0.38100
N742        N  0.38237939  0.84967574  0.84434867    -0.39700
N743        N  0.39707849  0.71386640  0.98937230    -0.37500
N744        N  0.31890310  0.71363005  0.92886977    -0.39800
N745        N  0.28365288  0.80435502  0.92349619    -0.39600
N746        N  0.22438186  0.79556401  0.84535335    -0.37300
N747        N  0.36238998  0.73514790  0.75378156    -0.38300
N748        N  0.41701358  0.74593727  0.83041258    -0.40000
C749        C  0.13500719  0.69600914  0.77860824    -0.04900
C750        C  0.13775469  0.66159853  0.77270875     0.09200
C751        C  0.16907649  0.64786296  0.76536048    -0.02300
C752        C  0.19753398  0.66836121  0.76284949    -0.00500
C753        C  0.19494357  0.70343362  0.76720810    -0.04200
C754        C  0.16340943  0.71675502  0.77617659     0.02900
C755        C  0.10805138  0.63894937  0.77398334     0.09700
C756        C  0.17180659  0.61216171  0.75986513     0.35600
C757        C  0.16042960  0.75159225  0.78509186     0.39000
C758        C  0.09446592  0.62662304  0.74424396    -0.04500
C759        C  0.07208130  0.59948032  0.74452400     0.02600
C760        C  0.06215557  0.58453683  0.77512500    -0.04100
C761        C  0.07415809  0.59912434  0.80524030    -0.00400
C762        C  0.09710507  0.62589621  0.80447781    -0.02900
C763        C  0.10449703  0.64139318  0.71294153     0.36300
C764        C  0.06365251  0.58684419  0.83747680     0.39900
C765        C  0.06037788  0.58697574  0.71277867     0.39100
C766        C  0.11028048  0.63963306  0.83514703     0.36000
C767        C  0.10288206  0.71003317  0.78716678     0.36700
C768        C  0.22859248  0.65202973  0.75515073     0.39900
N769        N  0.05136824  0.57725968  0.68721798    -0.38100
N770        N  0.11225071  0.65295326  0.68784672    -0.39700
N771        N  0.05545917  0.57730442  0.86331841    -0.37500
N772        N  0.12073699  0.65078206  0.85954414    -0.39800
N773        N  0.17381135  0.58376457  0.75541292    -0.39600
N774        N  0.25156917  0.63594301  0.74866249    -0.37300
N775        N  0.15794875  0.77900551  0.79362791    -0.38300
N776        N  0.07727801  0.72124142  0.79410770    -0.40000
C777        C  0.23288827  0.85858867  0.68587304    -0.04900
C778        C  0.23435098  0.84931095  0.65216034     0.09200
C779        C  0.23974333  0.81575468  0.64364224    -0.02300
C780        C  0.24607710  0.79200098  0.66847259    -0.00500
C781        C  0.24334659  0.80069788  0.70262116    -0.04200
C782        C  0.23578788  0.83425692  0.71087167     0.02900
C783        C  0.23193422  0.87490120  0.62528451     0.09700
C784        C  0.23899919  0.80570369  0.60893361     0.35600
C785        C  0.22750257  0.84350446  0.74467694     0.39000
C786        C  0.26015143  0.88205464  0.60572490    -0.04500
C787        C  0.25785726  0.90408318  0.57875145     0.02600
C788        C  0.22778781  0.92174607  0.57253874    -0.04100
C789        C  0.19937056  0.91429332  0.59238690    -0.00400
C790        C  0.20142884  0.89060943  0.61820452    -0.02900
C791        C  0.29185925  0.86660641  0.61347491     0.36300
C792        C  0.16783992  0.93082421  0.58681049     0.39900
C793        C  0.28654010  0.90714543  0.55689404     0.39100
C794        C  0.17209283  0.88239929  0.63768206     0.36000
C795        C  0.22811443  0.89325469  0.69485576     0.36700
C796        C  0.25660383  0.75935564  0.65768307     0.39900
N797        N  0.30944147  0.90931454  0.53950782    -0.38100
N798        N  0.31706502  0.85425835  0.61966950    -0.39700
N799        N  0.14253410  0.94378986  0.58250491    -0.37500
N800        N  0.14879435  0.87600886  0.65341235    -0.39800
N801        N  0.23841620  0.79776756  0.58129099    -0.39600
N802        N  0.26554818  0.73446182  0.64628067    -0.37300
N803        N  0.21886062  0.85136484  0.77098114    -0.38300
N804        N  0.22431298  0.92091673  0.70197047    -0.40000
C805        C  0.24195522  0.67387056  0.86131875    -0.04900
C806        C  0.26672533  0.64992364  0.85483174     0.09200
C807        C  0.28663675  0.65292233  0.82612097    -0.02300
C808        C  0.28197387  0.67988670  0.80425080    -0.00500
C809        C  0.25601055  0.70315862  0.80975621    -0.04200
C810        C  0.23574803  0.69958226  0.83845946     0.02900
C811        C  0.26989239  0.62046686  0.87737592     0.09700
C812        C  0.31071578  0.62726264  0.81816835     0.35600
C813        C  0.20766843  0.72104897  0.84489598     0.39000
C814        C  0.24345349  0.59737518  0.87953729    -0.04500
C815        C  0.24334284  0.57289134  0.90447294     0.02600
C816        C  0.27073451  0.56984167  0.92657344    -0.04100
C817        C  0.29865783  0.59125454  0.92214152    -0.00400
C818        C  0.29786068  0.61671078  0.89803929    -0.02900
C819        C  0.21618510  0.59902468  0.85604516     0.36300
C820        C  0.32809661  0.58788575  0.94247941     0.39900
C821        C  0.21478424  0.55058661  0.90651377     0.39100
C822        C  0.32607967  0.63913827  0.89451383     0.36000
C823        C  0.22208530  0.67150468  0.89149663     0.36700
C824        C  0.30136601  0.68106518  0.77381235     0.39900
N825        N  0.19204372  0.53296879  0.90794272    -0.38100
N826        N  0.19435526  0.60030725  0.83734511    -0.39700
N827        N  0.35203385  0.58523428  0.95825658    -0.37500
N828        N  0.34882380  0.65651114  0.89131306    -0.39800
N829        N  0.32991323  0.60673252  0.81184620    -0.39600
N830        N  0.31590279  0.68051556  0.74898815    -0.37300
N831        N  0.18460193  0.73663173  0.85230716    -0.38300
N832        N  0.20614491  0.66946906  0.91536833    -0.40000
C833        C  0.33194023  0.85491409  0.75805015    -0.04900
C834        C  0.35161038  0.84992037  0.72955470     0.09200
C835        C  0.34690163  0.82108880  0.71022029    -0.02300
C836        C  0.32255797  0.79731895  0.71939430    -0.00500
C837        C  0.30120117  0.80289826  0.74706814    -0.04200
C838        C  0.30674636  0.83191706  0.76671825     0.02900
C839        C  0.37814404  0.87488056  0.72123649     0.09700
C840        C  0.36729711  0.81586282  0.68091023     0.35600
C841        C  0.28698330  0.83967905  0.79571147     0.39000
C842        C  0.41074885  0.87047364  0.73330010    -0.04500
C843        C  0.43420929  0.89661231  0.73108692     0.02600
C844        C  0.42523860  0.92736027  0.71670759    -0.04100
C845        C  0.39311488  0.93108562  0.70304548    -0.00400
C846        C  0.36966078  0.90489631  0.70528971    -0.02900
C847        C  0.41981375  0.83923036  0.74875102     0.36300
C848        C  0.38355280  0.96244987  0.68824888     0.39900
C849        C  0.46768918  0.89166765  0.74342812     0.39100
C850        C  0.33637771  0.90910493  0.69214214     0.36000
C851        C  0.33776463  0.88421953  0.77855392     0.36700
C852        C  0.32172378  0.76574053  0.70196065     0.39900
N853        N  0.49435168  0.88735043  0.75325492    -0.38100
N854        N  0.42695765  0.81422009  0.76093569    -0.39700
N855        N  0.37569823  0.98747055  0.67655730    -0.37500
N856        N  0.30980712  0.91243530  0.68167844    -0.39800
N857        N  0.38346546  0.81176088  0.65742518    -0.39600
N858        N  0.32269557  0.74009268  0.68884788    -0.37300
N859        N  0.27278393  0.84896719  0.81898771    -0.38300
N860        N  0.34252356  0.90756528  0.79478954    -0.40000
C861        C  0.18530563  0.70980383  0.35837786    -0.04900
C862        C  0.15334361  0.72405524  0.35762349     0.09200
C863        C  0.14418160  0.74378437  0.33048228    -0.02300
C864        C  0.16601722  0.74801708  0.30336414    -0.00500
C865        C  0.19902981  0.73531539  0.30443784    -0.04200
C866        C  0.20841079  0.71641053  0.33260573     0.02900
C867        C  0.12923999  0.71999271  0.38582023     0.09700
C868        C  0.11197329  0.76030103  0.33078462     0.35600
C869        C  0.24197576  0.70379222  0.33550482     0.39000
C870        C  0.13263392  0.74009019  0.41437381    -0.04500
C871        C  0.10659845  0.74182403  0.43792814     0.02600
C872        C  0.07778948  0.72157946  0.43433687    -0.04100
C873        C  0.07506243  0.70054275  0.40624477    -0.00400
C874        C  0.10021342  0.70047458  0.38170990    -0.02900
C875        C  0.16243993  0.76015909  0.41869088     0.36300
C876        C  0.04519470  0.68089141  0.40098232     0.39900
C877        C  0.10943673  0.76510912  0.46541913     0.39100
C878        C  0.09473369  0.68260652  0.35085590     0.36000
C879        C  0.19437893  0.68842720  0.38580254     0.36700
C880        C  0.15256752  0.76485886  0.27491707     0.39900
N881        N  0.11177284  0.78385315  0.48718540    -0.38100
N882        N  0.18638949  0.77588789  0.42206593    -0.39700
N883        N  0.02150235  0.66513795  0.39633336    -0.37500
N884        N  0.08930562  0.66920736  0.32598508    -0.39800
N885        N  0.08639472  0.77347192  0.33117056    -0.39600
N886        N  0.13787855  0.77832751  0.25430793    -0.37300
N887        N  0.26862130  0.69332392  0.33832219    -0.38300
N888        N  0.20154733  0.67123124  0.40760977    -0.40000
C889        C  0.86319984  0.75312163  0.69039680    -0.04900
C890        C  0.85537242  0.74647856  0.65700056     0.09200
C891        C  0.82181421  0.74258339  0.64778743    -0.02300
C892        C  0.79629270  0.74409604  0.67192507    -0.00500
C893        C  0.80364274  0.75151540  0.70567109    -0.04200
C894        C  0.83765919  0.75632282  0.71445124     0.02900
C895        C  0.88246572  0.74283427  0.63141067     0.09700
C896        C  0.81357217  0.73669631  0.61317624     0.35600
C897        C  0.84746890  0.76592389  0.74760797     0.39000
C898        C  0.88985981  0.71126803  0.61802027    -0.04500
C899        C  0.91330975  0.70787413  0.59198164     0.02600
C900        C  0.93111251  0.73611608  0.57982402    -0.04100
C901        C  0.92448163  0.76771454  0.59484342    -0.00400
C902        C  0.90005018  0.77093290  0.61999142    -0.02900
C903        C  0.87326607  0.68204801  0.63140924     0.36300
C904        C  0.94269311  0.79742777  0.58517877     0.39900
C905        C  0.91813852  0.67504094  0.57769270     0.39100
C906        C  0.89295081  0.80339424  0.63431613     0.36000
C907        C  0.89785665  0.75683379  0.69999808     0.36700
C908        C  0.76291899  0.73503436  0.66187431     0.39900
N909        N  0.92168120  0.64874538  0.56640693    -0.38100
N910        N  0.86002990  0.65886753  0.64224940    -0.39700
N911        N  0.95704884  0.82129774  0.57773128    -0.37500
N912        N  0.88738419  0.82920643  0.64588305    -0.39800
N913        N  0.80712914  0.73201599  0.58556300    -0.39600
N914        N  0.73718539  0.72581230  0.65280247    -0.37300
N915        N  0.85793337  0.77449768  0.77297372    -0.38300
N916        N  0.92544883  0.75988210  0.70765043    -0.40000
C917        C  0.14838697  0.76124607  0.67345341    -0.04900
C918        C  0.14835832  0.73081506  0.65595122     0.09200
C919        C  0.17279405  0.70685867  0.66340725    -0.02300
C920        C  0.19752668  0.71380771  0.68732685    -0.00500
C921        C  0.19632498  0.74337615  0.70674993    -0.04200
C922        C  0.17079543  0.76675002  0.69984974     0.02900
C923        C  0.12296401  0.72487459  0.62914551     0.09700
C924        C  0.17292847  0.67513723  0.64606220     0.35600
C925        C  0.16603321  0.79632238  0.71978004     0.39000
C926        C  0.13285141  0.72290809  0.59545851    -0.04500
C927        C  0.10869562  0.72000994  0.57022119     0.02600
C928        C  0.07452413  0.72209187  0.57812731    -0.04100
C929        C  0.06452313  0.72308818  0.61171597    -0.00400
C930        C  0.08861885  0.72357962  0.63716850    -0.02900
C931        C  0.16784031  0.72497322  0.58659581     0.36300
C932        C  0.02936080  0.72364605  0.62007202     0.39900
C933        C  0.11909257  0.71350129  0.53635826     0.39100
C934        C  0.07805029  0.72344083  0.67165831     0.36000
C935        C  0.12547426  0.78736881  0.66375964     0.36700
C936        C  0.22604897  0.69194144  0.68915424     0.39900
N937        N  0.12792480  0.70718485  0.50971009    -0.38100
N938        N  0.19577343  0.72652074  0.57963129    -0.39700
N939        N  0.00132857  0.72406971  0.62677161    -0.37500
N940        N  0.06965582  0.72337267  0.69917886    -0.39800
N941        N  0.17308415  0.64978174  0.63233102    -0.39600
N942        N  0.24934253  0.67508042  0.68861210    -0.37300
N943        N  0.15963323  0.82028145  0.73445161    -0.38300
N944        N  0.10718664  0.80803887  0.65582855    -0.40000
C945        C  0.64968169  0.73559297  0.16935067    -0.04900
C946        C  0.65204311  0.76298745  0.14784345     0.09200
C947        C  0.67878816  0.78541145  0.15141087    -0.02300
C948        C  0.70274203  0.78084516  0.17667600    -0.00500
C949        C  0.70084092  0.75318305  0.19859927    -0.04200
C950        C  0.67399392  0.73029457  0.19410972     0.02900
C951        C  0.62631641  0.76797739  0.12121879     0.09700
C952        C  0.68218201  0.81276368  0.12820079     0.35600
C953        C  0.66963429  0.70142419  0.21493208     0.39000
C954        C  0.60200415  0.79303520  0.12465369    -0.04500
C955        C  0.57782275  0.79786522  0.09969926     0.02600
C956        C  0.57612238  0.77598688  0.07204373    -0.04100
C957        C  0.60006189  0.75012592  0.06925271    -0.00400
C958        C  0.62545983  0.74680063  0.09320503    -0.02900
C959        C  0.60057949  0.81244570  0.15502739     0.36300
C960        C  0.59904477  0.72687504  0.04158309     0.39900
C961        C  0.55380391  0.82449217  0.10355926     0.39100
C962        C  0.65045618  0.72103396  0.08940408     0.36000
C963        C  0.62164443  0.71285249  0.16611011     0.36700
C964        C  0.73095455  0.80332119  0.17771308     0.39900
N965        N  0.53472637  0.84580759  0.10672938    -0.38100
N966        N  0.59899512  0.82736704  0.17958706    -0.39700
N967        N  0.59827441  0.70826171  0.01959336    -0.37500
N968        N  0.67025867  0.70035992  0.08648479    -0.39800
N969        N  0.68489349  0.83447286  0.10957627    -0.39600
N970        N  0.75383091  0.82082600  0.17635435    -0.37300
N971        N  0.66303218  0.67806074  0.23033632    -0.38300
N972        N  0.59933849  0.69475040  0.16343939    -0.40000
C973        C  0.84972340  0.66919970  0.21106385    -0.04900
C974        C  0.85178570  0.64223651  0.23305904     0.09200
C975        C  0.82989295  0.64049544  0.26027734    -0.02300
C976        C  0.80644566  0.66603473  0.26610246    -0.00500
C977        C  0.80348654  0.69315091  0.24363263    -0.04200
C978        C  0.82556493  0.69422911  0.21596863     0.02900
C979        C  0.87913771  0.61721415  0.22950903     0.09700
C980        C  0.83172839  0.61214275  0.28248338     0.35600
C981        C  0.82600701  0.72266827  0.19402862     0.39000
C982        C  0.90963948  0.62273796  0.24587404    -0.04500
C983        C  0.93462256  0.59823119  0.24510896     0.02600
C984        C  0.92967016  0.56832078  0.22712158    -0.04100
C985        C  0.90033309  0.56415815  0.20824493    -0.00400
C986        C  0.87454891  0.58793218  0.21056730    -0.02900
C987        C  0.91509788  0.65360506  0.26386070     0.36300
C988        C  0.89636036  0.53526861  0.18692927     0.39900
C989        C  0.96589956  0.60424811  0.26213150     0.39100
C990        C  0.84276132  0.58158553  0.19480416     0.36000
C991        C  0.87351498  0.67174166  0.18399640     0.36700
C992        C  0.78570110  0.66314111  0.29531993     0.39900
N993        N  0.99088500  0.60908189  0.27558003    -0.38100
N994        N  0.91947181  0.67832254  0.27802524    -0.39700
N995        N  0.89323710  0.51232006  0.16975147    -0.37500
N996        N  0.81722390  0.57615574  0.18268908    -0.39800
N997        N  0.83310047  0.58944438  0.30002684    -0.39600
N998        N  0.77011548  0.65804872  0.31897416    -0.37300
N999        N  0.82856175  0.74568294  0.17702465    -0.38300
N1000       N  0.89268945  0.67376453  0.16259123    -0.40000
C1001       C  0.73960587  0.83158970  0.34784602    -0.04900
C1002       C  0.76979468  0.84938735  0.34908880     0.09200
C1003       C  0.79502545  0.84229843  0.32581236    -0.02300
C1004       C  0.78959819  0.81824376  0.30087431    -0.00500
C1005       C  0.76060491  0.79789174  0.30141575    -0.04200
C1006       C  0.73597483  0.80445764  0.32597481     0.02900
C1007       C  0.77494573  0.87501840  0.37557351     0.09700
C1008       C  0.82647353  0.86013247  0.32717820     0.35600
C1009       C  0.70731272  0.78314521  0.33065897     0.39000
C1010       C  0.77559435  0.86524683  0.40924743    -0.04500
C1011       C  0.77652435  0.88949743  0.43453289     0.02600
C1012       C  0.77989738  0.92339571  0.42629273    -0.04100
C1013       C  0.78172786  0.93299746  0.39266969    -0.00400
C1014       C  0.77752781  0.90907222  0.36737359    -0.02900
C1015       C  0.77456993  0.83019161  0.41783184     0.36300
C1016       C  0.78799427  0.96745287  0.38403300     0.39900
C1017       C  0.77296908  0.87953698  0.46891060     0.39100
C1018       C  0.77449304  0.91962286  0.33309348     0.36000
C1019       C  0.71206484  0.84136740  0.36921922     0.36700
C1020       C  0.81221728  0.81752427  0.27282219     0.39900
N1021       N  0.76946401  0.87114887  0.49614623    -0.38100
N1022       N  0.77368031  0.80220303  0.42446156    -0.39700
N1023       N  0.79374870  0.99471471  0.37680420    -0.37500
N1024       N  0.77191304  0.92801807  0.30576758    -0.39800
N1025       N  0.85154018  0.87436744  0.32826170    -0.39600
N1026       N  0.82965547  0.81940082  0.24998291    -0.37300
N1027       N  0.68419265  0.76715940  0.33710739    -0.38300
N1028       N  0.69011919  0.84928159  0.38614179    -0.40000
C1029       C  0.71108193  0.59948551  0.11821280    -0.04900
C1030       C  0.74161369  0.61482869  0.12606696     0.09200
C1031       C  0.77073146  0.60555880  0.10887578    -0.02300
C1032       C  0.76914318  0.58247769  0.08251602    -0.00500
C1033       C  0.73847744  0.56649861  0.07440701    -0.04200
C1034       C  0.70965896  0.57450143  0.09357187     0.02900
C1035       C  0.74291846  0.64234201  0.15109830     0.09700
C1036       C  0.80241234  0.62055805  0.11791014     0.35600
C1037       C  0.67839211  0.55690517  0.08892068     0.39000
C1038       C  0.73858598  0.63574803  0.18511289    -0.04500
C1039       C  0.73935745  0.66201623  0.20838623     0.02600
C1040       C  0.74698000  0.69502566  0.19823905    -0.04100
C1041       C  0.75164258  0.70119348  0.16378729    -0.00400
C1042       C  0.74856410  0.67517493  0.14046824    -0.02900
C1043       C  0.73315912  0.60180160  0.19614998     0.36300
C1044       C  0.76110048  0.73350280  0.15122366     0.39900
C1045       C  0.72935153  0.65505932  0.24223114     0.39100
C1046       C  0.75170385  0.68209436  0.10517299     0.36000
C1047       C  0.68084785  0.61012204  0.13502122     0.36700
C1048       C  0.79929496  0.57647209  0.06346455     0.39900
N1049       N  0.71936649  0.64873466  0.26844773    -0.38100
N1050       N  0.72877059  0.57473498  0.20489727    -0.39700
N1051       N  0.76953553  0.75785687  0.13843612    -0.37500
N1052       N  0.75437268  0.68754943  0.07709372    -0.39800
N1053       N  0.82761860  0.63256845  0.12508013    -0.39600
N1054       N  0.82345516  0.57199990  0.04838177    -0.37300
N1055       N  0.65339917  0.54287837  0.08557808    -0.38300
N1056       N  0.65682778  0.61874636  0.14841593    -0.40000
C1057       C  0.89673695  0.70555126  0.38676984    -0.04900
C1058       C  0.87874243  0.73514574  0.38176758     0.09200
C1059       C  0.88548217  0.76303667  0.40198477    -0.02300
C1060       C  0.91016858  0.76155212  0.42697427    -0.00500
C1061       C  0.92885167  0.73192840  0.43206253    -0.04200
C1062       C  0.92133004  0.70371319  0.41181247     0.02900
C1063       C  0.85352790  0.73727023  0.35421209     0.09700
C1064       C  0.86710581  0.79357339  0.39671061     0.35600
C1065       C  0.93869517  0.67245331  0.41618145     0.39000
C1066       C  0.81938924  0.73252673  0.36058299    -0.04500
C1067       C  0.79591381  0.73395412  0.33444175     0.02600
C1068       C  0.80606221  0.74071564  0.30122336    -0.04100
C1069       C  0.84086795  0.74497894  0.29520248    -0.00400
C1070       C  0.86410945  0.74344436  0.32153033    -0.02900
C1071       C  0.80849909  0.72571142  0.39425669     0.36300
C1072       C  0.85408558  0.75234561  0.26267910     0.39900
C1073       C  0.76159854  0.72570577  0.34183478     0.39100
C1074       C  0.89935271  0.74888434  0.31518984     0.36000
C1075       C  0.89006105  0.67692345  0.36566984     0.36700
C1076       C  0.91531106  0.79057839  0.44789676     0.39900
N1077       N  0.73485325  0.71728895  0.34854713    -0.38100
N1078       N  0.79990430  0.72033596  0.42116316    -0.39700
N1079       N  0.86775394  0.75918608  0.23830439    -0.37500
N1080       N  0.92742597  0.75322183  0.31023325    -0.39800
N1081       N  0.85249553  0.81795516  0.39250252    -0.39600
N1082       N  0.91925023  0.81384090  0.46447573    -0.37300
N1083       N  0.95199640  0.64719657  0.41964100    -0.38300
N1084       N  0.88477349  0.65419962  0.34872906    -0.40000
C1085       C  0.36047363  0.80745137  0.27828439    -0.04900
C1086       C  0.35728918  0.84148705  0.27124067     0.09200
C1087       C  0.32616214  0.85439500  0.26247038    -0.02300
C1088       C  0.29860506  0.83303690  0.25810433    -0.00500
C1089       C  0.30147156  0.79827472  0.26451139    -0.04200
C1090       C  0.33239211  0.78632189  0.27651856     0.02900
C1091       C  0.38670734  0.86424563  0.27142267     0.09700
C1092       C  0.32289592  0.89004765  0.25696834     0.35600
C1093       C  0.33513344  0.75258631  0.28864164     0.39000
C1094       C  0.40244221  0.87222595  0.24125401    -0.04500
C1095       C  0.42667394  0.89755397  0.23994578     0.02600
C1096       C  0.43398848  0.91689855  0.26870913    -0.04100
C1097       C  0.41896466  0.90752902  0.29948022    -0.00400
C1098       C  0.39584467  0.88102112  0.30069719    -0.02900
C1099       C  0.39253278  0.85524008  0.21103532     0.36300
C1100       C  0.42638653  0.92507222  0.33016040     0.39900
C1101       C  0.44415056  0.90280808  0.20877174     0.39100
C1102       C  0.38061723  0.87147063  0.33199940     0.36000
C1103       C  0.39288614  0.79411240  0.28651133     0.36700
C1104       C  0.26875191  0.84839858  0.24577589     0.39900
N1105       N  0.45805413  0.90664875  0.18385030    -0.38100
N1106       N  0.38449555  0.84221713  0.18670700    -0.39700
N1107       N  0.43221074  0.93881271  0.35478779    -0.37500
N1108       N  0.36864553  0.86371194  0.35698852    -0.39800
N1109       N  0.32031498  0.91840492  0.25279233    -0.39600
N1110       N  0.24742700  0.86462609  0.23546023    -0.37300
N1111       N  0.33739117  0.72605505  0.29946267    -0.38300
N1112       N  0.41887959  0.78351310  0.29269425    -0.40000
C1113       C  0.60779448  0.11118942  0.28599964    -0.04900
C1114       C  0.61497822  0.12674511  0.25562423     0.09200
C1115       C  0.59850871  0.11665531  0.22654963    -0.02300
C1116       C  0.57516387  0.09043150  0.22749116    -0.00500
C1117       C  0.56779394  0.07406434  0.25798736    -0.04200
C1118       C  0.58445666  0.08497434  0.28735875     0.02900
C1119       C  0.64324259  0.15066984  0.25347598     0.09700
C1120       C  0.60664102  0.13264706  0.19527793     0.35600
C1121       C  0.57921691  0.06866464  0.31907754     0.39000
C1122       C  0.67512489  0.13855054  0.24601753    -0.04500
C1123       C  0.70249769  0.16042388  0.24441253     0.02600
C1124       C  0.69812601  0.19512200  0.25003592    -0.04100
C1125       C  0.66575429  0.20683409  0.25825411    -0.00400
C1126       C  0.63848482  0.18472452  0.25963561    -0.02900
C1127       C  0.67954013  0.10318652  0.23955914     0.36300
C1128       C  0.66065870  0.24102240  0.26851455     0.39900
C1129       C  0.73432477  0.14604805  0.23593785     0.39100
C1130       C  0.60547493  0.19686291  0.26782759     0.36000
C1131       C  0.62557406  0.12148969  0.31571092     0.36700
C1132       C  0.55952828  0.08042421  0.19658356     0.39900
N1133       N  0.75802856  0.13161455  0.22828748    -0.38100
N1134       N  0.68289050  0.07505845  0.23430728    -0.39700
N1135       N  0.65599376  0.26752980  0.27880031    -0.37500
N1136       N  0.57914715  0.20655202  0.27435175    -0.39800
N1137       N  0.61324856  0.14521744  0.17031531    -0.39600
N1138       N  0.54739569  0.07260506  0.17169962    -0.37300
N1139       N  0.57526844  0.05585688  0.34448677    -0.38300
N1140       N  0.63986848  0.12972571  0.33927787    -0.40000
C1141       C  0.60668403  0.88158714  0.29262148    -0.04900
C1142       C  0.62508577  0.87543767  0.26329522     0.09200
C1143       C  0.61927164  0.89527567  0.23505826    -0.02300
C1144       C  0.59554194  0.92106714  0.23606925    -0.00500
C1145       C  0.57598525  0.92668831  0.26506468    -0.04200
C1146       C  0.58194083  0.90662422  0.29342775     0.02900
C1147       C  0.65182132  0.84921214  0.26221174     0.09700
C1148       C  0.63815033  0.88936578  0.20477882     0.35600
C1149       C  0.56228062  0.91089764  0.32341154     0.39000
C1150       C  0.64378284  0.81507338  0.26336739    -0.04500
C1151       C  0.66917066  0.79079945  0.26160830     0.02600
C1152       C  0.70283442  0.79997788  0.25516325    -0.04100
C1153       C  0.71034258  0.83460843  0.25314395    -0.00400
C1154       C  0.68539086  0.85872610  0.25864536    -0.02900
C1155       C  0.60927384  0.80482358  0.26679729     0.36300
C1156       C  0.74295298  0.84673222  0.24393135     0.39900
C1157       C  0.66062789  0.75686769  0.27013984     0.39100
C1158       C  0.69422909  0.89380958  0.26038964     0.36000
C1159       C  0.61345266  0.86226152  0.32219851     0.36700
C1160       C  0.59236497  0.94235403  0.20718612     0.39900
N1161       N  0.65297479  0.73062714  0.27915301    -0.38100
N1162       N  0.58177803  0.79659693  0.26967318    -0.39700
N1163       N  0.76765234  0.85922426  0.23583343    -0.37500
N1164       N  0.70110730  0.92176654  0.26175022    -0.39800
N1165       N  0.65334596  0.88474286  0.18073993    -0.39600
N1166       N  0.58996330  0.95922952  0.18409866    -0.37300
N1167       N  0.54667683  0.91420015  0.34741054    -0.38300
N1168       N  0.61872165  0.84672937  0.34572854    -0.40000
C1169       C  0.67816212  0.21335597  0.84607843    -0.04900
C1170       C  0.64793149  0.23098753  0.84585829     0.09200
C1171       C  0.64118429  0.25279958  0.81950425    -0.02300
C1172       C  0.66512734  0.25850020  0.79444404    -0.00500
C1173       C  0.69580478  0.24108329  0.79439224    -0.04200
C1174       C  0.70167920  0.21785226  0.82020918     0.02900
C1175       C  0.62368410  0.22877436  0.87424539     0.09700
C1176       C  0.60938374  0.26994776  0.81857689     0.35600
C1177       C  0.73301780  0.20028067  0.82194138     0.39000
C1178       C  0.62072499  0.25578634  0.89644338    -0.04500
C1179       C  0.59462596  0.25678538  0.91995140     0.02600
C1180       C  0.57159252  0.22986373  0.92254911    -0.04100
C1181       C  0.57538314  0.20227212  0.90062108    -0.00400
C1182       C  0.60135793  0.20178342  0.87676829    -0.02900
C1183       C  0.64475958  0.28281998  0.89488406     0.36300
C1184       C  0.55164152  0.17500632  0.90105302     0.39900
C1185       C  0.59194231  0.28594783  0.94119528     0.39100
C1186       C  0.60493758  0.17366592  0.85434187     0.36000
C1187       C  0.68551597  0.19144477  0.87361387     0.36700
C1188       C  0.65738831  0.28316515  0.76973269     0.39900
N1189       N  0.58992729  0.30937625  0.95788879    -0.38100
N1190       N  0.66402445  0.30424653  0.89368628    -0.39700
N1191       N  0.53268556  0.15325107  0.90116769    -0.37500
N1192       N  0.60811449  0.15118614  0.83657591    -0.39800
N1193       N  0.58406260  0.28357870  0.81793252    -0.39600
N1194       N  0.64825452  0.30344181  0.75164433    -0.37300
N1195       N  0.75833715  0.18696060  0.82489459    -0.38300
N1196       N  0.69140312  0.17401495  0.89562471    -0.40000
C1197       C  0.83166597  0.35398485  0.73822605    -0.04900
C1198       C  0.85116948  0.35134923  0.76702161     0.09200
C1199       C  0.84504404  0.32466544  0.78891095    -0.02300
C1200       C  0.82050942  0.30043882  0.78122242    -0.00500
C1201       C  0.79828262  0.30499179  0.75422535    -0.04200
C1202       C  0.80363158  0.33327688  0.73363934     0.02900
C1203       C  0.87731229  0.37746485  0.77399804     0.09700
C1204       C  0.86393071  0.32207548  0.81940697     0.35600
C1205       C  0.77977837  0.34456896  0.70960151     0.39000
C1206       C  0.86788953  0.41128955  0.77740822    -0.04500
C1207       C  0.89228905  0.43659912  0.77773099     0.02600
C1208       C  0.92635599  0.42835847  0.77805689    -0.04100
C1209       C  0.93588007  0.39457970  0.77756385    -0.00400
C1210       C  0.91157046  0.36931653  0.77383687    -0.02900
C1211       C  0.83294365  0.42026221  0.77932544     0.36300
C1212       C  0.97066085  0.38576628  0.78094305     0.39900
C1213       C  0.88225082  0.47118683  0.77613651     0.39100
C1214       C  0.92193180  0.33523803  0.76805796     0.36000
C1215       C  0.84025163  0.37866960  0.71322708     0.36700
C1216       C  0.82009954  0.26972169  0.79983868     0.39900
N1217       N  0.87394411  0.49863844  0.77408640    -0.38100
N1218       N  0.80510440  0.42749490  0.78072484    -0.39700
N1219       N  0.99825756  0.37840670  0.78437177    -0.37500
N1220       N  0.93014502  0.30805116  0.76328120    -0.39800
N1221       N  0.87893128  0.32009442  0.84379933    -0.39600
N1222       N  0.82136694  0.24476394  0.81401081    -0.37300
N1223       N  0.76290116  0.35779605  0.69056385    -0.38300
N1224       N  0.84711244  0.39829914  0.69337017    -0.40000
C1225       C  0.78287854  0.15124235  0.67188947    -0.04900
C1226       C  0.76840693  0.15389394  0.64018097     0.09200
C1227       C  0.74993511  0.18244091  0.63247230    -0.02300
C1228       C  0.74196361  0.20584523  0.65742178    -0.00500
C1229       C  0.75680018  0.20389754  0.68942674    -0.04200
C1230       C  0.77876845  0.17702198  0.69555225     0.02900
C1231       C  0.77054628  0.12590965  0.61537983     0.09700
C1232       C  0.73847807  0.18733564  0.59859198     0.35600
C1233       C  0.79722896  0.17536434  0.72627644     0.39000
C1234       C  0.74146699  0.10829579  0.60639009    -0.04500
C1235       C  0.74280451  0.08237671  0.58270095     0.02600
C1236       C  0.77355338  0.07357675  0.56720772    -0.04100
C1237       C  0.80269420  0.09187842  0.57623396    -0.00400
C1238       C  0.80098588  0.11792154  0.59988604    -0.02900
C1239       C  0.70958837  0.11784679  0.62064944     0.36300
C1240       C  0.83478204  0.08475020  0.56119510     0.39900
C1241       C  0.71193916  0.06520947  0.57475868     0.39100
C1242       C  0.83055995  0.13730398  0.60762268     0.36000
C1243       C  0.80156564  0.12165636  0.68037843     0.36700
C1244       C  0.71722724  0.23021105  0.64891118     0.39900
N1245       N  0.68713630  0.05180724  0.56865595    -0.38100
N1246       N  0.68413028  0.12621825  0.63125328    -0.39700
N1247       N  0.86052810  0.07920661  0.54945507    -0.37500
N1248       N  0.85415266  0.15269305  0.61381634    -0.39800
N1249       N  0.72943173  0.19124712  0.57163756    -0.39600
N1250       N  0.69705671  0.24763239  0.63826073    -0.37300
N1251       N  0.81224022  0.17305006  0.75062472    -0.38300
N1252       N  0.81644929  0.09800541  0.68704670    -0.40000
C1253       C  0.75926857  0.40262588  0.87254100    -0.04900
C1254       C  0.72940308  0.38710738  0.86282522     0.09200
C1255       C  0.69923456  0.39646707  0.87794793    -0.02300
C1256       C  0.69919215  0.41903133  0.90494669    -0.00500
C1257       C  0.72948609  0.43395333  0.91596029    -0.04200
C1258       C  0.75918443  0.42704412  0.89771717     0.02900
C1259       C  0.73053044  0.35791509  0.83974705     0.09700
C1260       C  0.66826978  0.38202804  0.86615518     0.35600
C1261       C  0.78987289  0.44525126  0.90380271     0.39000
C1262       C  0.73984259  0.32678663  0.85230837    -0.04500
C1263       C  0.74449170  0.29944066  0.83076080     0.02600
C1264       C  0.73788639  0.30244548  0.79617870    -0.04100
C1265       C  0.72580203  0.33342155  0.78441700    -0.00400
C1266       C  0.72334234  0.36123612  0.80581066    -0.02900
C1267       C  0.74522943  0.32320197  0.88784196     0.36300
C1268       C  0.71430885  0.33653595  0.75055961     0.39900
C1269       C  0.75744014  0.26958039  0.84556649     0.39100
C1270       C  0.71370553  0.39342829  0.79291912     0.36000
C1271       C  0.79052957  0.39217002  0.85768129     0.36700
C1272       C  0.66775679  0.42591000  0.92137679     0.39900
N1273       N  0.76833884  0.24806431  0.86109806    -0.38100
N1274       N  0.74932955  0.32041911  0.91612418    -0.39700
N1275       N  0.70390403  0.33917579  0.72394554    -0.37500
N1276       N  0.70613603  0.41916963  0.78265970    -0.39800
N1277       N  0.64360593  0.37071604  0.85643932    -0.39600
N1278       N  0.64253539  0.43118333  0.93430788    -0.37300
N1279       N  0.81437278  0.45983587  0.90823255    -0.38300
N1280       N  0.81557022  0.38343378  0.84644456    -0.40000
C1281       C  0.67475849  0.14270484  0.74622744    -0.04900
C1282       C  0.64753499  0.14955221  0.72549750     0.09200
C1283       C  0.64607656  0.18075113  0.70958225    -0.02300
C1284       C  0.67020221  0.20551388  0.71647212    -0.00500
C1285       C  0.69905388  0.19789082  0.73511461    -0.04200
C1286       C  0.70168711  0.16526675  0.74841601     0.02900
C1287       C  0.61999924  0.12432949  0.72138093     0.09700
C1288       C  0.61974127  0.18737736  0.68596586     0.35600
C1289       C  0.73194321  0.15283496  0.76287948     0.39000
C1290       C  0.58772726  0.13145959  0.73342816    -0.04500
C1291       C  0.56173844  0.10809592  0.72953568     0.02600
C1292       C  0.56807765  0.07636456  0.71575674    -0.04100
C1293       C  0.60027149  0.06915352  0.70353088    -0.00400
C1294       C  0.62610449  0.09299878  0.70627051    -0.02900
C1295       C  0.58146712  0.16245808  0.75099950     0.36300
C1296       C  0.60708980  0.03684840  0.68881258     0.39900
C1297       C  0.52805323  0.11785636  0.73764873     0.39100
C1298       C  0.65933228  0.08450244  0.69495273     0.36000
C1299       C  0.67481951  0.11247536  0.76593879     0.36700
C1300       C  0.66472972  0.23889434  0.70440616     0.39900
N1301       N  0.50138525  0.12697554  0.74336995    -0.38100
N1302       N  0.57658772  0.18712911  0.76509505    -0.39700
N1303       N  0.61254421  0.01113695  0.67697644    -0.37500
N1304       N  0.68593829  0.07712770  0.68670207    -0.39800
N1305       N  0.59885391  0.19259136  0.66697647    -0.39600
N1306       N  0.65952810  0.26526066  0.69425111    -0.37300
N1307       N  0.75454103  0.13937393  0.77437141    -0.38300
N1308       N  0.67475199  0.08850154  0.78177483    -0.40000
C1309       C  0.39475449  0.21138830  0.11687019    -0.04900
C1310       C  0.38878264  0.24249286  0.13205762     0.09200
C1311       C  0.40737795  0.27043854  0.12198462    -0.02300
C1312       C  0.43111137  0.26763886  0.09617267    -0.00500
C1313       C  0.43516951  0.23704544  0.07850285    -0.04200
C1314       C  0.41749259  0.20857778  0.09017725     0.02900
C1315       C  0.36069162  0.24613360  0.15648342     0.09700
C1316       C  0.40137039  0.30248039  0.13765533     0.35600
C1317       C  0.42206843  0.17607158  0.07503883     0.39000
C1318       C  0.36659289  0.25145679  0.19050403    -0.04500
C1319       C  0.33961082  0.25418461  0.21301090     0.02600
C1320       C  0.30628444  0.24851379  0.20241220    -0.04100
C1321       C  0.30094920  0.24300594  0.16783432    -0.00400
C1322       C  0.32776190  0.24368207  0.14514357    -0.02900
C1323       C  0.40056187  0.25449240  0.20232046     0.36300
C1324       C  0.26894282  0.23404649  0.15431768     0.39900
C1325       C  0.34663872  0.26547998  0.24637528     0.39100
C1326       C  0.32153083  0.24152359  0.10962646     0.36000
C1327       C  0.37655688  0.18227050  0.12824447     0.36700
C1328       C  0.45183641  0.29637921  0.08895383     0.39900
N1329       N  0.35368677  0.27636103  0.27204923    -0.38100
N1330       N  0.42765538  0.25696563  0.21172079    -0.39700
N1331       N  0.24540856  0.22538182  0.14018741    -0.37500
N1332       N  0.31663265  0.23996590  0.08136254    -0.39800
N1333       N  0.39655494  0.32797865  0.15019908    -0.39600
N1334       N  0.46843852  0.31934731  0.08355266    -0.37300
N1335       N  0.42561968  0.14997348  0.06332303    -0.38300
N1336       N  0.36190014  0.15913899  0.13723269    -0.40000
C1337       C  0.10891985  0.38692352  0.28216401    -0.04900
C1338       C  0.13505617  0.38785528  0.25868831     0.09200
C1339       C  0.13513481  0.41267697  0.23407629    -0.02300
C1340       C  0.10727034  0.43357973  0.23019779    -0.00500
C1341       C  0.07946524  0.43062499  0.25182029    -0.04200
C1342       C  0.08108354  0.40796349  0.27866518     0.02900
C1343       C  0.15940762  0.35963898  0.25694790     0.09700
C1344       C  0.16451889  0.41768814  0.21371159     0.35600
C1345       C  0.05362269  0.40501803  0.30196158     0.39000
C1346       C  0.14809431  0.32814409  0.24647274    -0.04500
C1347       C  0.16982759  0.30064471  0.24570343     0.02600
C1348       C  0.20399675  0.30440072  0.25414444    -0.04100
C1349       C  0.21522506  0.33653775  0.26413492    -0.00400
C1350       C  0.19298212  0.36374044  0.26593619    -0.02900
C1351       C  0.11359787  0.32408307  0.23620540     0.36300
C1352       C  0.24900957  0.34166324  0.27538375     0.39900
C1353       C  0.15571797  0.26916004  0.23556261     0.39100
C1354       C  0.20448549  0.39592199  0.27776851     0.36000
C1355       C  0.11087535  0.36406356  0.30989829     0.36700
C1356       C  0.10771726  0.45854336  0.20423238     0.39900
N1357       N  0.14126493  0.24591870  0.22649619    -0.38100
N1358       N  0.08613640  0.32087269  0.22815897    -0.39700
N1359       N  0.27511941  0.34688777  0.28631245    -0.37500
N1360       N  0.21370862  0.42164061  0.28700702    -0.39800
N1361       N  0.18849188  0.42261268  0.19848619    -0.39600
N1362       N  0.10806524  0.47834698  0.18343008    -0.37300
N1363       N  0.03179910  0.40253960  0.32062611    -0.38300
N1364       N  0.11281760  0.34599972  0.33211769    -0.40000
C1365       C  0.23709108  0.14001719  0.32302346    -0.04900
C1366       C  0.24393326  0.14890367  0.35601156     0.09200
C1367       C  0.25428433  0.18149628  0.36346990    -0.02300
C1368       C  0.25673829  0.20558121  0.33809356    -0.00500
C1369       C  0.24948598  0.19717947  0.30450050    -0.04200
C1370       C  0.24010289  0.16368443  0.29737343     0.02900
C1371       C  0.24109822  0.12331786  0.38278226     0.09700
C1372       C  0.26309045  0.18998370  0.39740243     0.35600
C1373       C  0.23188289  0.15258004  0.26428812     0.39000
C1374       C  0.26925778  0.10501125  0.39213531    -0.04500
C1375       C  0.26651816  0.07953400  0.41601811     0.02600
C1376       C  0.23539254  0.07283205  0.43203443    -0.04100
C1377       C  0.20715663  0.09178972  0.42233838    -0.00400
C1378       C  0.20998859  0.11615970  0.39729526    -0.02900
C1379       C  0.30108703  0.11192696  0.37629329     0.36300
C1380       C  0.17483781  0.08675402  0.43775554     0.39900
C1381       C  0.29598001  0.05988238  0.42275903     0.39100
C1382       C  0.18053608  0.13313112  0.38544473     0.36000
C1383       C  0.22665787  0.10612528  0.31559414     0.36700
C1384       C  0.26874153  0.23834664  0.34706042     0.39900
N1385       N  0.31966954  0.04438195  0.42781246    -0.38100
N1386       N  0.32639311  0.11749649  0.36365289    -0.39700
N1387       N  0.14890628  0.08301311  0.44979721    -0.37500
N1388       N  0.15690216  0.14619488  0.37567777    -0.39800
N1389       N  0.27033188  0.19662859  0.42442091    -0.39600
N1390       N  0.27985587  0.26348653  0.35577764    -0.37300
N1391       N  0.22372004  0.14082231  0.23934157    -0.38300
N1392       N  0.21823905  0.07916168  0.30979495    -0.40000
C1393       C  0.23032633  0.31882059  0.14645288    -0.04900
C1394       C  0.25244981  0.34608187  0.14623437     0.09200
C1395       C  0.27454696  0.35032378  0.17301838    -0.02300
C1396       C  0.27654246  0.32611100  0.19822072    -0.00500
C1397       C  0.25294811  0.29973882  0.19986546    -0.04200
C1398       C  0.22887931  0.29735819  0.17416347     0.02900
C1399       C  0.25332068  0.37028637  0.11781269     0.09700
C1400       C  0.29540325  0.37992238  0.17465910     0.35600
C1401       C  0.20416253  0.27110559  0.17413101     0.39000
C1402       C  0.22631034  0.39177900  0.11200963    -0.04500
C1403       C  0.22919467  0.41786827  0.08878400     0.02600
C1404       C  0.25909628  0.42240429  0.07021254    -0.04100
C1405       C  0.28543183  0.39933398  0.07479620    -0.00400
C1406       C  0.28228074  0.37327833  0.09806805    -0.02900
C1407       C  0.19490273  0.38643427  0.12914551     0.36300
C1408       C  0.31573915  0.40148557  0.05516529     0.39900
C1409       C  0.20115224  0.44014987  0.08488634     0.39100
C1410       C  0.30863477  0.34887373  0.10130295     0.36000
C1411       C  0.20992026  0.31204216  0.11751173     0.36700
C1412       C  0.30357081  0.32917006  0.22158148     0.39900
N1413       N  0.17835477  0.45743214  0.08193729    -0.38100
N1414       N  0.16946495  0.38148199  0.14177028    -0.39700
N1415       N  0.33991067  0.40294339  0.03953333    -0.37500
N1416       N  0.32951980  0.32927398  0.10386209    -0.39800
N1417       N  0.31188902  0.40355840  0.17602160    -0.39600
N1418       N  0.32597261  0.33428314  0.23885715    -0.37300
N1419       N  0.18498468  0.24970586  0.17167740    -0.38300
N1420       N  0.19373859  0.30659368  0.09438695    -0.40000
C1421       C  0.34818818  0.16387841  0.27706538    -0.04900
C1422       C  0.34737701  0.14050588  0.25111364     0.09200
C1423       C  0.32378555  0.14377123  0.22570214    -0.02300
C1424       C  0.30095699  0.17047292  0.22616660    -0.00500
C1425       C  0.30156559  0.19460865  0.25212600    -0.04200
C1426       C  0.32582027  0.19087331  0.27755267     0.02900
C1427       C  0.37255409  0.11317266  0.25035086     0.09700
C1428       C  0.32267582  0.11909389  0.19932796     0.35600
C1429       C  0.33002205  0.21508250  0.30377152     0.39000
C1430       C  0.36680988  0.08342689  0.26800222    -0.04500
C1431       C  0.39236873  0.05955660  0.27089932     0.02600
C1432       C  0.42374437  0.06526975  0.25595210    -0.04100
C1433       C  0.42907241  0.09477206  0.23755604    -0.00400
C1434       C  0.40352069  0.11854840  0.23470962    -0.02900
C1435       C  0.33457054  0.07758370  0.28324034     0.36300
C1436       C  0.46134241  0.10162604  0.22283589     0.39900
C1437       C  0.38618864  0.02883957  0.28871626     0.39100
C1438       C  0.40926606  0.14902451  0.21629271     0.36000
C1439       C  0.37270260  0.16018979  0.30327431     0.36700
C1440       C  0.27549383  0.17099694  0.20091575     0.39900
N1441       N  0.38135311  0.00427770  0.30287842    -0.38100
N1442       N  0.30874713  0.07298145  0.29522406    -0.39700
N1443       N  0.48696766  0.10766316  0.21110104    -0.37500
N1444       N  0.41383022  0.17331286  0.20160258    -0.39800
N1445       N  0.32170805  0.09939640  0.17831446    -0.39600
N1446       N  0.25485445  0.16873942  0.18107015    -0.37300
N1447       N  0.33666472  0.23315785  0.32518470    -0.38300
N1448       N  0.39223417  0.15709844  0.32408485    -0.40000
C1449       C  0.89647890  0.22131849  0.38186156    -0.04900
C1450       C  0.87965836  0.25037830  0.37217699     0.09200
C1451       C  0.88701100  0.28093143  0.38770542    -0.02300
C1452       C  0.90987936  0.28233027  0.41406258    -0.00500
C1453       C  0.92734447  0.25323694  0.42393737    -0.04200
C1454       C  0.92051209  0.22268090  0.40724586     0.02900
C1455       C  0.85379900  0.24888351  0.34568935     0.09700
C1456       C  0.87110881  0.31116085  0.37622697     0.35600
C1457       C  0.93836452  0.19242843  0.41531050     0.39000
C1458       C  0.82000969  0.25271026  0.35397434    -0.04500
C1459       C  0.79568676  0.25305672  0.32889449     0.02600
C1460       C  0.80452350  0.24715485  0.29516415    -0.04100
C1461       C  0.83878996  0.24241888  0.28735780    -0.00400
C1462       C  0.86319527  0.24444763  0.31236274    -0.02900
C1463       C  0.81033533  0.25687382  0.38852917     0.36300
C1464       C  0.84998488  0.23368252  0.25436669     0.39900
C1465       C  0.76216354  0.26238210  0.33820065     0.39100
C1466       C  0.89830173  0.24181452  0.30389018     0.36000
C1467       C  0.88923380  0.18994204  0.36532638     0.36700
C1468       C  0.91423130  0.31384252  0.43131892     0.39900
N1469       N  0.73638549  0.27174954  0.34699567    -0.38100
N1470       N  0.80271233  0.26024837  0.41606886    -0.39700
N1471       N  0.86165663  0.22548481  0.22936026    -0.37500
N1472       N  0.92627449  0.23961484  0.29730488    -0.39800
N1473       N  0.85846679  0.33525920  0.36708827    -0.39600
N1474       N  0.91746964  0.33904771  0.44496050    -0.37300
N1475       N  0.95243622  0.16817007  0.42159558    -0.38300
N1476       N  0.88351068  0.16499364  0.35204094    -0.40000
C1477       C  0.10936549  0.23704752  0.60923483    -0.04900
C1478       C  0.11908036  0.26809500  0.62273106     0.09200
C1479       C  0.10402482  0.29742381  0.61113293    -0.02300
C1480       C  0.07960562  0.29590141  0.58599277    -0.00500
C1481       C  0.06985886  0.26471186  0.57194093    -0.04200
C1482       C  0.08520860  0.23526322  0.58403532     0.02900
C1483       C  0.14376026  0.26907296  0.65058799     0.09700
C1484       C  0.11297889  0.32927695  0.62581008     0.35600
C1485       C  0.07646128  0.20255665  0.57117463     0.39000
C1486       C  0.17574869  0.28307384  0.64648007    -0.04500
C1487       C  0.19946981  0.28044145  0.67216380     0.02600
C1488       C  0.19355934  0.25903345  0.69949506    -0.04100
C1489       C  0.16176854  0.24379454  0.70223276    -0.00400
C1490       C  0.13613684  0.25250640  0.68031144    -0.02900
C1491       C  0.18457718  0.29949302  0.61566407     0.36300
C1492       C  0.15478952  0.21693729  0.72485041     0.39900
C1493       C  0.23016935  0.29918015  0.66959463     0.39100
C1494       C  0.10189660  0.24309072  0.68756805     0.36000
C1495       C  0.12312712  0.20642527  0.62249295     0.36700
C1496       C  0.06420776  0.32679819  0.57567411     0.39900
N1497       N  0.25456642  0.31422289  0.66636801    -0.38100
N1498       N  0.19167430  0.31259056  0.59108339    -0.39700
N1499       N  0.14580849  0.19494014  0.74106263    -0.37500
N1500       N  0.07460875  0.23578045  0.69336591    -0.39800
N1501       N  0.12026949  0.35472284  0.63726483    -0.39600
N1502       N  0.05214378  0.35161624  0.56764699    -0.37300
N1503       N  0.06959673  0.17632023  0.56134399    -0.38300
N1504       N  0.13318725  0.18206167  0.63390547    -0.40000
C1505       C  0.86719200  0.25182161  0.58468750    -0.04900
C1506       C  0.86995187  0.27278461  0.61271366     0.09200
C1507       C  0.89770883  0.29422143  0.61591717    -0.02300
C1508       C  0.92384514  0.29286321  0.59251585    -0.00500
C1509       C  0.92181550  0.27073807  0.56524983    -0.04200
C1510       C  0.89288188  0.25103874  0.56084441     0.02900
C1511       C  0.84537166  0.26992019  0.64047735     0.09700
C1512       C  0.89971660  0.31695774  0.64394529     0.35600
C1513       C  0.88935720  0.23007357  0.53159696     0.39000
C1514       C  0.85497208  0.25449393  0.67026816    -0.04500
C1515       C  0.83242366  0.25205091  0.69699071     0.02600
C1516       C  0.79913999  0.26297794  0.69340779    -0.04100
C1517       C  0.78975351  0.27866080  0.66339307    -0.00400
C1518       C  0.81286832  0.28243302  0.63725040    -0.02900
C1519       C  0.88818524  0.24056793  0.67318799     0.36300
C1520       C  0.75682623  0.29266508  0.65974834     0.39900
C1521       C  0.84463945  0.23888935  0.72795487     0.39100
C1522       C  0.80324383  0.29922176  0.60694065     0.36000
C1523       C  0.83821031  0.23054155  0.58073180     0.36700
C1524       C  0.95362609  0.31269367  0.59771124     0.39900
N1525       N  0.85699199  0.22834962  0.75157015    -0.38100
N1526       N  0.91463419  0.22947617  0.67543173    -0.39700
N1527       N  0.73105440  0.30504456  0.65657467    -0.37500
N1528       N  0.79551185  0.31246040  0.58270603    -0.39800
N1529       N  0.90123124  0.33495752  0.66639075    -0.39600
N1530       N  0.97745064  0.32837651  0.60203192    -0.37300
N1531       N  0.88653210  0.21342677  0.50825592    -0.38300
N1532       N  0.81495775  0.21379577  0.57740927    -0.40000
C1533       C  0.14789479  0.22129829  0.32462405    -0.04900
C1534       C  0.14654179  0.24406320  0.35112309     0.09200
C1535       C  0.17045127  0.26951653  0.35335927    -0.02300
C1536       C  0.19609411  0.27208769  0.32945364    -0.00500
C1537       C  0.19826911  0.24889202  0.30269789    -0.04200
C1538       C  0.17337177  0.22370531  0.30051127     0.02900
C1539       C  0.11919272  0.24226088  0.37630933     0.09700
C1540       C  0.16861112  0.29315610  0.38073995     0.35600
C1541       C  0.17194783  0.20136784  0.27232850     0.39000
C1542       C  0.12538801  0.22908293  0.40815497    -0.04500
C1543       C  0.10039101  0.23003859  0.43278767     0.02600
C1544       C  0.06962227  0.24541115  0.42603693    -0.04100
C1545       C  0.06304554  0.25760928  0.39387212    -0.00400
C1546       C  0.08770686  0.25581578  0.36899608    -0.02900
C1547       C  0.15794040  0.21577970  0.41596192     0.36300
C1548       C  0.03063114  0.27145589  0.38621461     0.39900
C1549       C  0.10673009  0.21618729  0.46537214     0.39100
C1550       C  0.08098091  0.26851135  0.33601785     0.36000
C1551       C  0.12257448  0.19557234  0.32199241     0.36700
C1552       C  0.22027033  0.29826684  0.33436204     0.39900
N1553       N  0.11171752  0.20494003  0.49129115    -0.38100
N1554       N  0.18398433  0.20547011  0.42240697    -0.39700
N1555       N  0.00473469  0.28236499  0.38013016    -0.37500
N1556       N  0.07563652  0.27845203  0.30963827    -0.39800
N1557       N  0.16716103  0.31182282  0.40264471    -0.39600
N1558       N  0.23826970  0.31954153  0.34177716    -0.37300
N1559       N  0.16837864  0.18395672  0.24966919    -0.38300
N1560       N  0.10231452  0.17513637  0.31991458    -0.40000
loop_ 
_geom_bond_atom_site_label_1 
_geom_bond_atom_site_label_2 
_geom_bond_distance 
_geom_bond_site_symmetry_2 
_ccdc_geom_bond_type 
O1           Cu9   2.000       .  S
O1           C11   1.277       .  A
O2           Cu9   2.001   1_455  S
O2           C12   1.278       .  A
O3           Cu9   1.991       .  S
O3           C13   1.276       .  A
O4           Cu9   2.007   1_455  S
O4           C14   1.276       .  A
O5          Cu10   2.001   1_455  S
O5           C14   1.277       .  A
O6          Cu10   2.014       .  S
O6           C13   1.278       .  A
O7          Cu10   2.003   1_455  S
O7           C12   1.276       .  A
O8          Cu10   1.992       .  S
O8           C11   1.276       .  A
Cu9         Cu10   2.366       .  S
C11        C1453   1.498       .  S
C12        C1481   1.507       .  S
C13        C1509   1.481       .  S
C14        C1544   1.478       .  S
C15        C1425   1.521       .  S
C15          C16   1.435       .  A
C15          C20   1.439       .  A
C16        C1369   1.523       .  S
C16          C17   1.436       .  A
C17        C1537   1.521       .  S
C17          C18   1.433       .  A
C18        C1348   1.521       .  S
C18          C19   1.436       .  A
C19        C1397   1.518       .  S
C19          C20   1.436       .  A
C20        C1320   1.526       .  S
C21        C1516   1.504       .  S
C21          C22   1.429       .  A
C21          C26   1.432       .  A
C22        C1201   1.527       .  S
C22          C23   1.433       .  A
C23        C1264   1.516       .  S
C23          C24   1.434       .  A
C24        C1173   1.513       .  S
C24          C25   1.434       .  A
C25        C1285   1.517       .  S
C25          C26   1.429       .  A
C26        C1229   1.519       .  S
O27         Cu35   2.011   1_545  S
O27          C37   1.278       .  A
O28         Cu35   2.006       .  S
O28          C38   1.279       .  A
O29         Cu35   1.999   1_545  S
O29          C39   1.275       .  A
O30         Cu35   1.994       .  S
O30          C40   1.276       .  A
O31         Cu36   2.033       .  S
O31          C40   1.281       .  A
O32         Cu36   2.031   1_545  S
O32          C39   1.281       .  A
O33         Cu36   1.993       .  S
O33          C38   1.274       .  A
O34         Cu36   1.991   1_545  S
O34          C37   1.275       .  A
Cu35        Cu36   2.356       .  S
C37        C1117   1.503       .  S
C38        C1096   1.504       .  S
C39        C1432   1.486       .  S
C40        C1145   1.506       .  S
C41        C1152   1.528       .  S
C41          C42   1.438       .  A
C41          C46   1.435       .  A
C42        C1005   1.512       .  S
C42          C43   1.439       .  A
C43        C1068   1.533       .  S
C43          C44   1.431       .  A
C44         C977   1.521       .  S
C44          C45   1.439       .  A
C45        C1040   1.513       .  S
C45          C46   1.435       .  A
C46         C949   1.529       .  S
O47         Cu55   2.012       .  S
O47          C57   1.276       .  A
O48         Cu55   2.023   1_655  S
O48          C58   1.279       .  A
O49         Cu55   2.027       .  S
O49          C59   1.281       .  A
O50         Cu55   2.024   1_655  S
O50          C60   1.280       .  A
O51         Cu56   2.004   1_655  S
O51          C60   1.276       .  A
O52         Cu56   1.998       .  S
O52          C59   1.276       .  A
O53         Cu56   2.029   1_655  S
O53          C58   1.281       .  A
O54         Cu56   2.026       .  S
O54          C57   1.280       .  A
Cu55        Cu56   2.361       .  S
C57         C928   1.483       .  S
C58        C1061   1.516       .  S
C59         C872   1.493       .  S
C60         C900   1.516       .  S
C61         C753   1.518       .  S
C61          C62   1.431       .  A
C61          C66   1.427       .  A
C62         C921   1.520       .  S
C62          C63   1.432       .  A
C63         C781   1.515       .  S
C63          C64   1.436       .  A
C64         C837   1.520       .  S
C64          C65   1.429       .  A
C65         C725   1.515       .  S
C65          C66   1.431       .  A
C66         C809   1.509       .  S
O67         Cu75   1.990       .  S
O67          C77   1.275       .  A
O68         Cu75   1.990   1_565  S
O68          C78   1.274       .  A
O69         Cu75   2.022       .  S
O69          C79   1.279       .  A
O70         Cu75   2.018   1_565  S
O70          C80   1.279       .  A
O71         Cu76   2.019   1_565  S
O71          C80   1.278       .  A
O72         Cu76   2.020       .  S
O72          C79   1.278       .  A
O73         Cu76   2.034   1_565  S
O73          C78   1.282       .  A
O74         Cu76   2.037       .  S
O74          C77   1.282       .  A
Cu75        Cu76   2.359       .  S
C77         C669   1.506       .  S
C78         C704   1.514       .  S
C79        C1292   1.490       .  S
C80         C844   1.487       .  S
O81         Cu89   2.011       .  S
O81          C91   1.277       .  A
O82         Cu89   2.015   1_554  S
O82          C92   1.279       .  A
O83         Cu89   1.989       .  S
O83          C93   1.276       .  A
O84         Cu89   2.001   1_554  S
O84          C94   1.276       .  A
O85         Cu90   2.024       .  S
O85          C94   1.281       .  A
O86         Cu90   2.026   1_556  S
O86          C93   1.280       .  A
O87         Cu90   2.009       .  S
O87          C92   1.278       .  A
O88         Cu90   2.002   1_556  S
O88          C91   1.275       .  A
Cu89        Cu90   2.364   1_556  S
C91         C613   1.474       .  S
C92         C641   1.500       .  S
C93         C816   1.502       .  S
C94        C1404   1.505       .  S
O95        Cu103   2.008       .  S
O95         C105   1.278       .  A
O96        Cu103   2.000   1_554  S
O96         C106   1.277       .  A
O97        Cu103   1.995       .  S
O97         C107   1.276       .  A
O98        Cu103   2.000   1_554  S
O98         C108   1.277       .  A
O99        Cu104   2.002   1_554  S
O99         C108   1.277       .  A
O100       Cu104   2.016       .  S
O100        C107   1.278       .  A
O101       Cu104   2.030   1_554  S
O101        C106   1.280       .  A
O102       Cu104   2.013       .  S
O102        C105   1.278       .  A
Cu103      Cu104   2.357       .  S
C105        C585   1.501       .  S
C106        C557   1.500       .  S
C107       C1257   1.508       .  S
C108       C1033   1.505       .  S
C109        C893   1.523       .  S
C109        C110   1.438       .  A
C109        C114   1.435       .  A
C110        C529   1.519       .  S
C110        C111   1.432       .  A
C111        C697   1.521       .  S
C111        C112   1.434       .  A
C112        C473   1.521       .  S
C112        C113   1.433       .  A
C113        C592   1.519       .  S
C113        C114   1.438       .  A
C114        C501   1.525       .  S
O115       Cu123   2.008       .  S
O115        C125   1.278       .  A
O116       Cu123   2.008   1_545  S
O116        C126   1.277       .  A
O117       Cu123   2.004       .  S
O117        C127   1.276       .  A
O118       Cu123   2.002   1_545  S
O118        C128   1.277       .  A
O119       Cu124   2.013   1_545  S
O119        C128   1.278       .  A
O120       Cu124   2.010       .  S
O120        C127   1.277       .  A
O121       Cu124   2.019   1_545  S
O121        C126   1.280       .  A
O122       Cu124   2.020       .  S
O122        C125   1.278       .  A
Cu123      Cu124   2.367       .  S
C125        C536   1.489       .  S
C126        C445   1.494       .  S
C127       C1012   1.474       .  S
C128       C1236   1.512       .  S
C129        C417   1.515       .  S
C129        C130   1.435       .  A
C129        C134   1.435       .  A
C130       C1460   1.516       .  S
C130        C131   1.433       .  A
C131        C452   1.528       .  S
C131        C132   1.430       .  A
C132       C1124   1.511       .  S
C132        C133   1.438       .  A
C133        C389   1.519       .  S
C133        C134   1.431       .  A
C134        C564   1.527       .  S
O135       Cu143   2.026   1_655  S
O135        C145   1.279       .  A
O136       Cu143   2.015       .  S
O136        C146   1.279       .  A
O137       Cu143   1.998   1_655  S
O137        C147   1.275       .  A
O138       Cu143   1.996       .  S
O138        C148   1.276       .  A
O139       Cu144   2.000   1_455  S
O139        C148   1.277       .  A
O140       Cu144   2.010       .  S
O140        C147   1.277       .  A
O141       Cu144   2.007   1_455  S
O141        C146   1.277       .  A
O142       Cu144   1.997       .  S
O142        C145   1.277       .  A
Cu143      Cu144   2.369   1_455  S
C145        C984   1.486       .  S
C146       C1341   1.493       .  S
C147        C424   1.472       .  S
C148        C361   1.500       .  S
C149       C1089   1.516       .  S
C149        C150   1.430       .  A
C149        C154   1.435       .  A
C150        C333   1.509       .  S
C150        C151   1.430       .  A
C151        C865   1.516       .  S
C151        C152   1.428       .  A
C152        C368   1.509       .  S
C152        C153   1.430       .  A
C153        C648   1.514       .  S
C153        C154   1.430       .  A
C154        C305   1.518       .  S
O155       Cu163   2.015   1_545  S
O155        C165   1.278       .  A
O156       Cu163   2.028       .  S
O156        C166   1.281       .  A
O157       Cu163   1.989   1_545  S
O157        C167   1.274       .  A
O158       Cu163   1.978       .  S
O158        C168   1.273       .  A
O159       Cu164   2.033       .  S
O159        C168   1.281       .  A
O160       Cu164   2.028   1_545  S
O160        C167   1.281       .  A
O161       Cu164   2.001       .  S
O161        C166   1.276       .  A
O162       Cu164   2.010   1_545  S
O162        C165   1.277       .  A
Cu163      Cu164   2.360       .  S
C165        C284   1.488       .  S
C166        C340   1.502       .  S
C167       C1376   1.511       .  S
C168        C788   1.506       .  S
C169        C676   1.509       .  S
C169        C170   1.431       .  A
C169        C174   1.429       .  A
C170        C277   1.518       .  S
C170        C171   1.430       .  A
C171       C1488   1.507       .  S
C171        C172   1.431       .  A
C172        C249   1.526       .  S
C172        C173   1.433       .  A
C173        C620   1.509       .  S
C173        C174   1.436       .  A
C174        C228   1.525       .  S
O175       Cu183   2.012   1_455  S
O175        C185   1.278       .  A
O176       Cu183   2.018       .  S
O176        C186   1.277       .  A
O177       Cu183   2.033   1_455  S
O177        C187   1.281       .  A
O178       Cu183   2.032       .  S
O178        C188   1.280       .  A
O179       Cu184   2.005       .  S
O179        C188   1.278       .  A
O180       Cu184   2.012   1_455  S
O180        C187   1.278       .  A
O181       Cu184   2.017       .  S
O181        C186   1.278       .  A
O182       Cu184   2.012   1_455  S
O182        C185   1.278       .  A
Cu183      Cu184   2.364       .  S
C185        C760   1.515       .  S
C186       C1208   1.483       .  S
C187        C256   1.501       .  S
C188        C508   1.497       .  S
O189       Cu197   2.014       .  S
O189        C199   1.278       .  A
O190       Cu197   2.015   1_554  S
O190        C200   1.278       .  A
O191       Cu197   2.002       .  S
O191        C201   1.277       .  A
O192       Cu197   2.006   1_554  S
O192        C202   1.277       .  A
O193       Cu198   2.019   1_554  S
O193        C202   1.279       .  A
O194       Cu198   2.029       .  S
O194        C201   1.281       .  A
O195       Cu198   2.006   1_554  S
O195        C200   1.276       .  A
O196       Cu198   2.026       .  S
O196        C199   1.279       .  A
Cu197      Cu198   2.358       .  S
C199        C221   1.519       .  S
C200        C396   1.478       .  S
C201       C1180   1.508       .  S
C202       C1313   1.512       .  S
O203       Cu211   2.037       .  S
O203        C213   1.282       .  A
O204       Cu211   2.034   1_556  S
O204        C214   1.282       .  A
O205       Cu211   2.004       .  S
O205        C215   1.275       .  A
O206       Cu211   2.011   1_556  S
O206        C216   1.276       .  A
O207       Cu212   2.021   1_556  S
O207        C216   1.279       .  A
O208       Cu212   2.016       .  S
O208        C215   1.279       .  A
O209       Cu212   2.000   1_556  S
O209        C214   1.276       .  A
O210       Cu212   2.001       .  S
O210        C213   1.276       .  A
Cu211      Cu212   2.371       .  S
C213        C956   1.501       .  S
C214        C732   1.500       .  S
C215        C312   1.477       .  S
C216        C480   1.481       .  S
C217        C218   1.407       .  A
C217        C222   1.416       .  A
C217        C235   1.452       .  S
C218        C223   1.505       .  S
C218        C219   1.408       .  A
C219        C220   1.415       .  A
C219        C224   1.453       .  S
C220        C221   1.429       .  A
C220        C236   1.452       .  S
C221        C222   1.428       .  A
C222        C225   1.451       .  S
C223        C226   1.407       .  A
C223        C230   1.404       .  A
C224        N241   1.157       .  T
C225        N243   1.157       .  T
C226        C227   1.417       .  A
C226        C231   1.450       .  S
C227        C228   1.422       .  A
C227        C233   1.447       .  S
C228        C229   1.426       .  A
C229        C230   1.413       .  A
C229        C232   1.441       .  S
C230        C234   1.456       .  S
C231        N238   1.157       .  T
C232        N239   1.157       .  T
C233        N237   1.157       .  T
C234        N240   1.157       .  T
C235        N244   1.157       .  T
C236        N242   1.158       .  T
C245        C246   1.408       .  A
C245        C250   1.417       .  A
C245        C263   1.453       .  S
C246        C251   1.509       .  S
C246        C247   1.408       .  A
C247        C248   1.416       .  A
C247        C252   1.452       .  S
C248        C249   1.422       .  A
C248        C264   1.445       .  S
C249        C250   1.423       .  A
C250        C253   1.443       .  S
C251        C254   1.412       .  A
C251        C258   1.413       .  A
C252        N269   1.157       .  T
C253        N271   1.157       .  T
C254        C255   1.414       .  A
C254        C259   1.451       .  S
C255        C256   1.420       .  A
C255        C261   1.452       .  S
C256        C257   1.418       .  A
C257        C258   1.416       .  A
C257        C260   1.451       .  S
C258        C262   1.451       .  S
C259        N266   1.157       .  T
C260        N267   1.157       .  T
C261        N265   1.158       .  T
C262        N268   1.157       .  T
C263        N272   1.157       .  T
C264        N270   1.157       .  T
C273        C274   1.410       .  A
C273        C278   1.416       .  A
C273        C291   1.450       .  S
C274        C279   1.504       .  S
C274        C275   1.405       .  A
C275        C276   1.409       .  A
C275        C280   1.455       .  S
C276        C277   1.422       .  A
C276        C292   1.441       .  S
C277        C278   1.420       .  A
C278        C281   1.448       .  S
C279        C282   1.416       .  A
C279        C286   1.414       .  A
C280        N297   1.157       .  T
C281        N299   1.157       .  T
C282        C283   1.409       .  A
C282        C287   1.451       .  S
C283        C284   1.412       .  A
C283        C289   1.452       .  S
C284        C285   1.415       .  A
C285        C286   1.414       .  A
C285        C288   1.451       .  S
C286        C290   1.451       .  S
C287        N294   1.157       .  T
C288        N295   1.157       .  T
C289        N293   1.157       .  T
C290        N296   1.157       .  T
C291        N300   1.157       .  T
C292        N298   1.157       .  T
C301        C302   1.412       .  A
C301        C306   1.414       .  A
C301        C319   1.451       .  S
C302        C307   1.503       .  S
C302        C303   1.406       .  A
C303        C304   1.406       .  A
C303        C308   1.455       .  S
C304        C305   1.421       .  A
C304        C320   1.440       .  S
C305        C306   1.420       .  A
C306        C309   1.446       .  S
C307        C310   1.420       .  A
C307        C314   1.413       .  A
C308        N325   1.157       .  T
C309        N327   1.157       .  T
C310        C311   1.410       .  A
C310        C315   1.452       .  S
C311        C312   1.408       .  A
C311        C317   1.451       .  S
C312        C313   1.410       .  A
C313        C314   1.408       .  A
C313        C316   1.449       .  S
C314        C318   1.451       .  S
C315        N322   1.158       .  T
C316        N323   1.157       .  T
C317        N321   1.157       .  T
C318        N324   1.157       .  T
C319        N328   1.157       .  T
C320        N326   1.157       .  T
C329        C330   1.407       .  A
C329        C334   1.411       .  A
C329        C347   1.453       .  S
C330        C335   1.500       .  S
C330        C331   1.408       .  A
C331        C332   1.414       .  A
C331        C336   1.450       .  S
C332        C333   1.419       .  A
C332        C348   1.448       .  S
C333        C334   1.418       .  A
C334        C337   1.443       .  S
C335        C338   1.410       .  A
C335        C342   1.407       .  A
C336        N353   1.157       .  T
C337        N355   1.156       .  T
C338        C339   1.412       .  A
C338        C343   1.451       .  S
C339        C340   1.419       .  A
C339        C345   1.451       .  S
C340        C341   1.423       .  A
C341        C342   1.413       .  A
C341        C344   1.451       .  S
C342        C346   1.451       .  S
C343        N350   1.156       .  T
C344        N351   1.157       .  T
C345        N349   1.157       .  T
C346        N352   1.157       .  T
C347        N356   1.157       .  T
C348        N354   1.158       .  T
C357        C358   1.411       .  A
C357        C362   1.411       .  A
C357        C375   1.452       .  S
C358        C363   1.501       .  S
C358        C359   1.415       .  A
C359        C360   1.408       .  A
C359        C364   1.455       .  S
C360        C361   1.421       .  A
C360        C376   1.453       .  S
C361        C362   1.423       .  A
C362        C365   1.452       .  S
C363        C366   1.411       .  A
C363        C370   1.406       .  A
C364        N381   1.157       .  T
C365        N383   1.157       .  T
C366        C367   1.411       .  A
C366        C371   1.450       .  S
C367        C368   1.417       .  A
C367        C373   1.446       .  S
C368        C369   1.419       .  A
C369        C370   1.404       .  A
C369        C372   1.440       .  S
C370        C374   1.454       .  S
C371        N378   1.157       .  T
C372        N379   1.157       .  T
C373        N377   1.157       .  T
C374        N380   1.158       .  T
C375        N384   1.158       .  T
C376        N382   1.158       .  T
C385        C386   1.405       .  A
C385        C390   1.410       .  A
C385        C403   1.454       .  S
C386        C391   1.496       .  S
C386        C387   1.406       .  A
C387        C388   1.411       .  A
C387        C392   1.452       .  S
C388        C389   1.422       .  A
C388        C404   1.447       .  S
C389        C390   1.425       .  A
C390        C393   1.444       .  S
C391        C394   1.412       .  A
C391        C398   1.412       .  A
C392        N409   1.157       .  T
C393        N411   1.157       .  T
C394        C395   1.410       .  A
C394        C399   1.451       .  S
C395        C396   1.410       .  A
C395        C401   1.449       .  S
C396        C397   1.412       .  A
C397        C398   1.410       .  A
C397        C400   1.451       .  S
C398        C402   1.451       .  S
C399        N406   1.157       .  T
C400        N407   1.157       .  T
C401        N405   1.157   1_554  T
C402        N408   1.157       .  T
C403        N412   1.157       .  T
C404        N410   1.157       .  T
C413        C414   1.406       .  A
C413        C418   1.410       .  A
C413        C431   1.452       .  S
C414        C419   1.495       .  S
C414        C415   1.406       .  A
C415        C416   1.407       .  A
C415        C420   1.455       .  S
C416        C417   1.422       .  A
C416        C432   1.444       .  S
C417        C418   1.422       .  A
C418        C421   1.446       .  S
C419        C422   1.413       .  A
C419        C426   1.414       .  A
C420        N437   1.157       .  T
C421        N439   1.157       .  T
C422        C423   1.406       .  A
C422        C427   1.452       .  S
C423        C424   1.409       .  A
C423        C429   1.449       .  S
C424        C425   1.410       .  A
C425        C426   1.410       .  A
C425        C428   1.451       .  S
C426        C430   1.451       .  S
C427        N434   1.157       .  T
C428        N435   1.157   1_655  T
C429        N433   1.157       .  T
C430        N436   1.157       .  T
C431        N440   1.157       .  T
C432        N438   1.157       .  T
C441        C442   1.411       .  A
C441        C446   1.412       .  A
C441        C459   1.452       .  S
C442        C447   1.500       .  S
C442        C443   1.410       .  A
C443        C444   1.412       .  A
C443        C448   1.449       .  S
C444        C445   1.417       .  A
C444        C460   1.451       .  S
C445        C446   1.419       .  A
C446        C449   1.451       .  S
C447        C450   1.403       .  A
C447        C454   1.405       .  A
C448        N465   1.157       .  T
C449        N467   1.157       .  T
C450        C451   1.413       .  A
C450        C455   1.454       .  S
C451        C452   1.427       .  A
C451        C457   1.443       .  S
C452        C453   1.425       .  A
C453        C454   1.415       .  A
C453        C456   1.447       .  S
C454        C458   1.451       .  S
C455        N462   1.157       .  T
C456        N463   1.157       .  T
C457        N461   1.157       .  T
C458        N464   1.157       .  T
C459        N468   1.157       .  T
C460        N466   1.157       .  T
C469        C470   1.407       .  A
C469        C474   1.412       .  A
C469        C487   1.454       .  S
C470        C475   1.501       .  S
C470        C471   1.408       .  A
C471        C472   1.412       .  A
C471        C476   1.451       .  S
C472        C473   1.422       .  A
C472        C488   1.448       .  S
C473        C474   1.423       .  A
C474        C477   1.444       .  S
C475        C478   1.413       .  A
C475        C482   1.415       .  A
C476        N493   1.157       .  T
C477        N495   1.157       .  T
C478        C479   1.410       .  A
C478        C483   1.451       .  S
C479        C480   1.411       .  A
C479        C485   1.449       .  S
C480        C481   1.411       .  A
C481        C482   1.413       .  A
C481        C484   1.450       .  S
C482        C486   1.451       .  S
C483        N490   1.157       .  T
C484        N491   1.157       .  T
C485        N489   1.157       .  T
C486        N492   1.157       .  T
C487        N496   1.157       .  T
C488        N494   1.157       .  T
C497        C498   1.406       .  A
C497        C502   1.413       .  A
C497        C515   1.454       .  S
C498        C503   1.504       .  S
C498        C499   1.407       .  A
C499        C500   1.416       .  A
C499        C504   1.451       .  S
C500        C501   1.424       .  A
C500        C516   1.448       .  S
C501        C502   1.424       .  A
C502        C505   1.444       .  S
C503        C506   1.411       .  A
C503        C510   1.412       .  A
C504        N521   1.157       .  T
C505        N523   1.157       .  T
C506        C507   1.411       .  A
C506        C511   1.452       .  S
C507        C508   1.419       .  A
C507        C513   1.452       .  S
C508        C509   1.417       .  A
C509        C510   1.416       .  A
C509        C512   1.450       .  S
C510        C514   1.449       .  S
C511        N518   1.157       .  T
C512        N519   1.157       .  T
C513        N517   1.157       .  T
C514        N520   1.157       .  T
C515        N524   1.157       .  T
C516        N522   1.157       .  T
C525        C526   1.405       .  A
C525        C530   1.412       .  A
C525        C543   1.454       .  S
C526        C531   1.497       .  S
C526        C527   1.405       .  A
C527        C528   1.413       .  A
C527        C532   1.451       .  S
C528        C529   1.422       .  A
C528        C544   1.448       .  S
C529        C530   1.425       .  A
C530        C533   1.445       .  S
C531        C534   1.409       .  A
C531        C538   1.411       .  A
C532        N549   1.157       .  T
C533        N551   1.157       .  T
C534        C535   1.410       .  A
C534        C539   1.451       .  S
C535        C536   1.416       .  A
C535        C541   1.450       .  S
C536        C537   1.415       .  A
C537        C538   1.413       .  A
C537        C540   1.450       .  S
C538        C542   1.450       .  S
C539        N546   1.157       .  T
C540        N547   1.157       .  T
C541        N545   1.157       .  T
C542        N548   1.157       .  T
C543        N552   1.157       .  T
C544        N550   1.157       .  T
C553        C554   1.409       .  A
C553        C558   1.412       .  A
C553        C571   1.451       .  S
C554        C559   1.505       .  S
C554        C555   1.413       .  A
C555        C556   1.415       .  A
C555        C560   1.451       .  S
C556        C557   1.418       .  A
C556        C572   1.450       .  S
C557        C558   1.421       .  A
C558        C561   1.452       .  S
C559        C562   1.407       .  A
C559        C566   1.405       .  A
C560        N577   1.157       .  T
C561        N579   1.158       .  T
C562        C563   1.415       .  A
C562        C567   1.452       .  S
C563        C564   1.424       .  A
C563        C569   1.446       .  S
C564        C565   1.425       .  A
C565        C566   1.414       .  A
C565        C568   1.444       .  S
C566        C570   1.453       .  S
C567        N574   1.157       .  T
C568        N575   1.157       .  T
C569        N573   1.157       .  T
C570        N576   1.157       .  T
C571        N580   1.157       .  T
C572        N578   1.157       .  T
C581        C582   1.411       .  A
C581        C586   1.412       .  A
C581        C599   1.452       .  S
C582        C587   1.502       .  S
C582        C583   1.412       .  A
C583        C584   1.411       .  A
C583        C588   1.453       .  S
C584        C585   1.421       .  A
C584        C600   1.452       .  S
C585        C586   1.422       .  A
C586        C589   1.451       .  S
C587        C590   1.408       .  A
C587        C594   1.409       .  A
C588        N605   1.157       .  T
C589        N607   1.158       .  T
C590        C591   1.411       .  A
C590        C595   1.454       .  S
C591        C592   1.424       .  A
C591        C597   1.444       .  S
C592        C593   1.420       .  A
C593        C594   1.410       .  A
C593        C596   1.448       .  S
C594        C598   1.451       .  S
C595        N602   1.157       .  T
C596        N603   1.157       .  T
C597        N601   1.157       .  T
C598        N604   1.157       .  T
C599        N608   1.157       .  T
C600        N606   1.157       .  T
C609        C610   1.410       .  A
C609        C614   1.408       .  A
C609        C627   1.452       .  S
C610        C615   1.492       .  S
C610        C611   1.414       .  A
C611        C612   1.407       .  A
C611        C616   1.453       .  S
C612        C613   1.409       .  A
C612        C628   1.450       .  S
C613        C614   1.411       .  A
C614        C617   1.448       .  S
C615        C618   1.407       .  A
C615        C622   1.404       .  A
C616        N633   1.157       .  T
C617        N635   1.156       .  T
C618        C619   1.411       .  A
C618        C623   1.451       .  S
C619        C620   1.420       .  A
C619        C625   1.447       .  S
C620        C621   1.420       .  A
C621        C622   1.404       .  A
C621        C624   1.441       .  S
C622        C626   1.456       .  S
C623        N630   1.157       .  T
C624        N631   1.157       .  T
C625        N629   1.157       .  T
C626        N632   1.157       .  T
C627        N636   1.157       .  T
C628        N634   1.157       .  T
C637        C638   1.407       .  A
C637        C642   1.411       .  A
C637        C655   1.450       .  S
C638        C643   1.497       .  S
C638        C639   1.408       .  A
C639        C640   1.412       .  A
C639        C644   1.452       .  S
C640        C641   1.422       .  A
C640        C656   1.450       .  S
C641        C642   1.420       .  A
C642        C645   1.449       .  S
C643        C646   1.405       .  A
C643        C650   1.405       .  A
C644        N661   1.157       .  T
C645        N663   1.157       .  T
C646        C647   1.412       .  A
C646        C651   1.451       .  S
C647        C648   1.420       .  A
C647        C653   1.446       .  S
C648        C649   1.420       .  A
C649        C650   1.412       .  A
C649        C652   1.443       .  S
C650        C654   1.453       .  S
C651        N658   1.157       .  T
C652        N659   1.156       .  T
C653        N657   1.157       .  T
C654        N660   1.157       .  T
C655        N664   1.157       .  T
C656        N662   1.157       .  T
C665        C666   1.410       .  A
C665        C670   1.417       .  A
C665        C683   1.451       .  S
C666        C671   1.500       .  S
C666        C667   1.407       .  A
C667        C668   1.407       .  A
C667        C672   1.455       .  S
C668        C669   1.426       .  A
C668        C684   1.452       .  S
C669        C670   1.423       .  A
C670        C673   1.450       .  S
C671        C674   1.409       .  A
C671        C678   1.408       .  A
C672        N689   1.157       .  T
C673        N691   1.157       .  T
C674        C675   1.409       .  A
C674        C679   1.454       .  S
C675        C676   1.417       .  A
C675        C681   1.443       .  S
C676        C677   1.420       .  A
C677        C678   1.414       .  A
C677        C680   1.449       .  S
C678        C682   1.450       .  S
C679        N686   1.157       .  T
C680        N687   1.158       .  T
C681        N685   1.157       .  T
C682        N688   1.157       .  T
C683        N692   1.157       .  T
C684        N690   1.158       .  T
C693        C694   1.405       .  A
C693        C698   1.411       .  A
C693        C711   1.455       .  S
C694        C699   1.498       .  S
C694        C695   1.406       .  A
C695        C696   1.414       .  A
C695        C700   1.450       .  S
C696        C697   1.423       .  A
C696        C712   1.449       .  S
C697        C698   1.424       .  A
C698        C701   1.444       .  S
C699        C702   1.407       .  A
C699        C706   1.405       .  A
C700        N717   1.157       .  T
C701        N719   1.157       .  T
C702        C703   1.414       .  A
C702        C707   1.452       .  S
C703        C704   1.426       .  A
C703        C709   1.450       .  S
C704        C705   1.431       .  A
C705        C706   1.411       .  A
C705        C708   1.453       .  S
C706        C710   1.453       .  S
C707        N714   1.157       .  T
C708        N715   1.158       .  T
C709        N713   1.157       .  T
C710        N716   1.157       .  T
C711        N720   1.157       .  T
C712        N718   1.157       .  T
C721        C722   1.409       .  A
C721        C726   1.412       .  A
C721        C739   1.454       .  S
C722        C727   1.503       .  S
C722        C723   1.408       .  A
C723        C724   1.414       .  A
C723        C728   1.450       .  S
C724        C725   1.421       .  A
C724        C740   1.450       .  S
C725        C726   1.420       .  A
C726        C729   1.444       .  S
C727        C730   1.412       .  A
C727        C734   1.408       .  A
C728        N745   1.157       .  T
C729        N747   1.157       .  T
C730        C731   1.414       .  A
C730        C735   1.451       .  S
C731        C732   1.417       .  A
C731        C737   1.450       .  S
C732        C733   1.423       .  A
C733        C734   1.412       .  A
C733        C736   1.453       .  S
C734        C738   1.451       .  S
C735        N742   1.157       .  T
C736        N743   1.158       .  T
C737        N741   1.157       .  T
C738        N744   1.157       .  T
C739        N748   1.157       .  T
C740        N746   1.157       .  T
C749        C750   1.407       .  A
C749        C754   1.414       .  A
C749        C767   1.450       .  S
C750        C755   1.499       .  S
C750        C751   1.406       .  A
C751        C752   1.410       .  A
C751        C756   1.455       .  S
C752        C753   1.424       .  A
C752        C768   1.444       .  S
C753        C754   1.422       .  A
C754        C757   1.449       .  S
C755        C758   1.406       .  A
C755        C762   1.406       .  A
C756        N773   1.157       .  T
C757        N775   1.157       .  T
C758        C759   1.411       .  A
C758        C763   1.451       .  S
C759        C760   1.428       .  A
C759        C765   1.451       .  S
C760        C761   1.430       .  A
C761        C762   1.415       .  A
C761        C764   1.452       .  S
C762        C766   1.452       .  S
C763        N770   1.155       .  T
C764        N771   1.157       .  T
C765        N769   1.158       .  T
C766        N772   1.158       .  T
C767        N776   1.157       .  T
C768        N774   1.157       .  T
C777        C778   1.408       .  A
C777        C782   1.411       .  A
C777        C795   1.451       .  S
C778        C783   1.499       .  S
C778        C779   1.407       .  A
C779        C780   1.409       .  A
C779        C784   1.454       .  S
C780        C781   1.422       .  A
C780        C796   1.444       .  S
C781        C782   1.421       .  A
C782        C785   1.448       .  S
C783        C786   1.408       .  A
C783        C790   1.411       .  A
C784        N801   1.157       .  T
C785        N803   1.157       .  T
C786        C787   1.407       .  A
C786        C791   1.454       .  S
C787        C788   1.426       .  A
C787        C793   1.453       .  S
C788        C789   1.423       .  A
C789        C790   1.415       .  A
C789        C792   1.451       .  S
C790        C794   1.451       .  S
C791        N798   1.157       .  T
C792        N799   1.158       .  T
C793        N797   1.158       .  T
C794        N800   1.157       .  T
C795        N804   1.157       .  T
C796        N802   1.157       .  T
C805        C806   1.409       .  A
C805        C810   1.410       .  A
C805        C823   1.455       .  S
C806        C811   1.500       .  S
C806        C807   1.409       .  A
C807        C808   1.412       .  A
C807        C812   1.450       .  S
C808        C809   1.419       .  A
C808        C824   1.451       .  S
C809        C810   1.419       .  A
C810        C813   1.444       .  S
C811        C814   1.411       .  A
C811        C818   1.409       .  A
C812        N829   1.158       .  T
C813        N831   1.158       .  T
C814        C815   1.408       .  A
C814        C819   1.452       .  S
C815        C816   1.423       .  A
C815        C821   1.456       .  S
C816        C817   1.423       .  A
C817        C818   1.413       .  A
C817        C820   1.448       .  S
C818        C822   1.453       .  S
C819        N826   1.159       .  T
C820        N827   1.160       .  T
C821        N825   1.155       .  T
C822        N828   1.155       .  T
C823        N832   1.156       .  T
C824        N830   1.156       .  T
C833        C834   1.405       .  A
C833        C838   1.412       .  A
C833        C851   1.454       .  S
C834        C839   1.499       .  S
C834        C835   1.406       .  A
C835        C836   1.414       .  A
C835        C840   1.450       .  S
C836        C837   1.422       .  A
C836        C852   1.448       .  S
C837        C838   1.424       .  A
C838        C841   1.444       .  S
C839        C842   1.410       .  A
C839        C846   1.412       .  A
C840        N857   1.157       .  T
C841        N859   1.157       .  T
C842        C843   1.412       .  A
C842        C847   1.451       .  S
C843        C844   1.415       .  A
C843        C849   1.450       .  S
C844        C845   1.413       .  A
C845        C846   1.413       .  A
C845        C848   1.450       .  S
C846        C850   1.450       .  S
C847        N854   1.157       .  T
C848        N855   1.157       .  T
C849        N853   1.157       .  T
C850        N856   1.157       .  T
C851        N860   1.157       .  T
C852        N858   1.157       .  T
C861        C862   1.408       .  A
C861        C866   1.415       .  A
C861        C879   1.450       .  S
C862        C867   1.499       .  S
C862        C863   1.403       .  A
C863        C864   1.409       .  A
C863        C868   1.456       .  S
C864        C865   1.423       .  A
C864        C880   1.440       .  S
C865        C866   1.420       .  A
C866        C869   1.447       .  S
C867        C870   1.409       .  A
C867        C874   1.413       .  A
C868        N885   1.157       .  T
C869        N887   1.157       .  T
C870        C871   1.411       .  A
C870        C875   1.452       .  S
C871        C872   1.420       .  A
C871        C877   1.451       .  S
C872        C873   1.414       .  A
C873        C874   1.411       .  A
C873        C876   1.450       .  S
C874        C878   1.450       .  S
C875        N882   1.157       .  T
C876        N883   1.157       .  T
C877        N881   1.157       .  T
C878        N884   1.156       .  T
C879        N888   1.157       .  T
C880        N886   1.157       .  T
C889        C890   1.407       .  A
C889        C894   1.415       .  A
C889        C907   1.453       .  S
C890        C895   1.504       .  S
C890        C891   1.407       .  A
C891        C892   1.412       .  A
C891        C896   1.452       .  S
C892        C893   1.422       .  A
C892        C908   1.447       .  S
C893        C894   1.425       .  A
C894        C897   1.444       .  S
C895        C898   1.409       .  A
C895        C902   1.408       .  A
C896        N913   1.157       .  T
C897        N915   1.157       .  T
C898        C899   1.414       .  A
C898        C903   1.453       .  S
C899        C900   1.427       .  A
C899        C905   1.451       .  S
C900        C901   1.430       .  A
C901        C902   1.414       .  A
C901        C904   1.452       .  S
C902        C906   1.453       .  S
C903        N910   1.157       .  T
C904        N911   1.158       .  T
C905        N909   1.158       .  T
C906        N912   1.158       .  T
C907        N916   1.157       .  T
C908        N914   1.157       .  T
C917        C918   1.409       .  A
C917        C922   1.412       .  A
C917        C935   1.454       .  S
C918        C923   1.506       .  S
C918        C919   1.411       .  A
C919        C920   1.413       .  A
C919        C924   1.451       .  S
C920        C921   1.421       .  A
C920        C936   1.448       .  S
C921        C922   1.422       .  A
C922        C925   1.444       .  S
C923        C926   1.414       .  A
C923        C930   1.417       .  A
C924        N941   1.157       .  T
C925        N943   1.157       .  T
C926        C927   1.412       .  A
C926        C931   1.451       .  S
C927        C928   1.411       .  A
C927        C933   1.448       .  S
C928        C929   1.410       .  A
C929        C930   1.412       .  A
C929        C932   1.451       .  S
C930        C934   1.451       .  S
C931        N938   1.157       .  T
C932        N939   1.157       .  T
C933        N937   1.157       .  T
C934        N940   1.158       .  T
C935        N944   1.157       .  T
C936        N942   1.157       .  T
C945        C946   1.406       .  A
C945        C950   1.415       .  A
C945        C963   1.454       .  S
C946        C951   1.506       .  S
C946        C947   1.407       .  A
C947        C948   1.416       .  A
C947        C952   1.451       .  S
C948        C949   1.424       .  A
C948        C964   1.447       .  S
C949        C950   1.427       .  A
C950        C953   1.444       .  S
C951        C954   1.411       .  A
C951        C958   1.411       .  A
C952        N969   1.157       .  T
C953        N971   1.157       .  T
C954        C955   1.414       .  A
C954        C959   1.449       .  S
C955        C956   1.418       .  A
C955        C961   1.451       .  S
C956        C957   1.422       .  A
C957        C958   1.413       .  A
C957        C960   1.452       .  S
C958        C962   1.452       .  S
C959        N966   1.156       .  T
C960        N967   1.157       .  T
C961        N965   1.158       .  T
C962        N968   1.157       .  T
C963        N972   1.157       .  T
C964        N970   1.157       .  T
C973        C974   1.405       .  A
C973        C978   1.413       .  A
C973        C991   1.451       .  S
C974        C979   1.498       .  S
C974        C975   1.405       .  A
C975        C976   1.414       .  A
C975        C980   1.453       .  S
C976        C977   1.424       .  A
C976        C992   1.445       .  S
C977        C978   1.423       .  A
C978        C981   1.447       .  S
C979        C982   1.410       .  A
C979        C986   1.412       .  A
C980        N997   1.157       .  T
C981        N999   1.157       .  T
C982        C983   1.408       .  A
C982        C987   1.450       .  S
C983        C984   1.415       .  A
C983        C989   1.452       .  S
C984        C985   1.414       .  A
C985        C986   1.414       .  A
C985        C988   1.450       .  S
C986        C990   1.449       .  S
C987        N994   1.157       .  T
C988        N995   1.157       .  T
C989        N993   1.158       .  T
C990        N996   1.157       .  T
C991       N1000   1.157       .  T
C992        N998   1.157       .  T
C1001      C1002   1.407       .  A
C1001      C1006   1.407       .  A
C1001      C1019   1.454       .  S
C1002      C1007   1.494       .  S
C1002      C1003   1.407       .  A
C1003      C1004   1.408       .  A
C1003      C1008   1.451       .  S
C1004      C1005   1.421       .  A
C1004      C1020   1.448       .  S
C1005      C1006   1.421       .  A
C1006      C1009   1.445       .  S
C1007      C1010   1.414       .  A
C1007      C1014   1.412       .  A
C1008      N1025   1.157       .  T
C1009      N1027   1.157       .  T
C1010      C1011   1.407       .  A
C1010      C1015   1.452       .  S
C1011      C1012   1.409       .  A
C1011      C1017   1.449       .  S
C1012      C1013   1.411       .  A
C1013      C1014   1.408       .  A
C1013      C1016   1.450       .  S
C1014      C1018   1.451       .  S
C1015      N1022   1.157       .  T
C1016      N1023   1.157       .  T
C1017      N1021   1.157       .  T
C1018      N1024   1.157       .  T
C1019      N1028   1.157       .  T
C1020      N1026   1.157       .  T
C1029      C1030   1.407       .  A
C1029      C1034   1.410       .  A
C1029      C1047   1.453       .  S
C1030      C1035   1.494       .  S
C1030      C1031   1.408       .  A
C1031      C1032   1.409       .  A
C1031      C1036   1.453       .  S
C1032      C1033   1.426       .  A
C1032      C1048   1.452       .  S
C1033      C1034   1.426       .  A
C1034      C1037   1.452       .  S
C1035      C1038   1.406       .  A
C1035      C1042   1.406       .  A
C1036      N1053   1.157       .  T
C1037      N1055   1.158       .  T
C1038      C1039   1.409       .  A
C1038      C1043   1.452       .  S
C1039      C1040   1.421       .  A
C1039      C1045   1.448       .  S
C1040      C1041   1.422       .  A
C1041      C1042   1.408       .  A
C1041      C1044   1.444       .  S
C1042      C1046   1.454       .  S
C1043      N1050   1.157       .  T
C1044      N1051   1.157       .  T
C1045      N1049   1.157       .  T
C1046      N1052   1.157       .  T
C1047      N1056   1.157       .  T
C1048      N1054   1.157       .  T
C1057      C1058   1.409       .  A
C1057      C1062   1.416       .  A
C1057      C1075   1.452       .  S
C1058      C1063   1.508       .  S
C1058      C1059   1.409       .  A
C1059      C1060   1.417       .  A
C1059      C1064   1.451       .  S
C1060      C1061   1.425       .  A
C1060      C1076   1.451       .  S
C1061      C1062   1.426       .  A
C1062      C1065   1.450       .  S
C1063      C1066   1.407       .  A
C1063      C1070   1.405       .  A
C1064      N1081   1.157       .  T
C1065      N1083   1.157       .  T
C1066      C1067   1.417       .  A
C1066      C1071   1.450       .  S
C1067      C1068   1.424       .  A
C1067      C1073   1.447       .  S
C1068      C1069   1.428       .  A
C1069      C1070   1.417       .  A
C1069      C1072   1.443       .  S
C1070      C1074   1.454       .  S
C1071      N1078   1.157       .  T
C1072      N1079   1.157       .  T
C1073      N1077   1.157       .  T
C1074      N1080   1.157       .  T
C1075      N1084   1.157       .  T
C1076      N1082   1.157       .  T
C1085      C1086   1.404       .  A
C1085      C1090   1.411       .  A
C1085      C1103   1.449       .  S
C1086      C1091   1.492       .  S
C1086      C1087   1.402       .  A
C1087      C1088   1.410       .  A
C1087      C1092   1.457       .  S
C1088      C1089   1.426       .  A
C1088      C1104   1.441       .  S
C1089      C1090   1.420       .  A
C1090      C1093   1.447       .  S
C1091      C1094   1.405       .  A
C1091      C1098   1.405       .  A
C1092      N1109   1.157       .  T
C1093      N1111   1.157       .  T
C1094      C1095   1.407       .  A
C1094      C1099   1.449       .  S
C1095      C1096   1.424       .  A
C1095      C1101   1.452       .  S
C1096      C1097   1.428       .  A
C1097      C1098   1.412       .  A
C1097      C1100   1.452       .  S
C1098      C1102   1.452       .  S
C1099      N1106   1.156       .  T
C1100      N1107   1.158       .  T
C1101      N1105   1.158       .  T
C1102      N1108   1.157       .  T
C1103      N1112   1.157       .  T
C1104      N1110   1.157       .  T
C1113      C1114   1.405       .  A
C1113      C1118   1.409       .  A
C1113      C1131   1.454       .  S
C1114      C1119   1.488       .  S
C1114      C1115   1.405       .  A
C1115      C1116   1.409       .  A
C1115      C1120   1.452       .  S
C1116      C1117   1.425       .  A
C1116      C1132   1.451       .  S
C1117      C1118   1.428       .  A
C1118      C1121   1.452       .  S
C1119      C1122   1.403       .  A
C1119      C1126   1.403       .  A
C1120      N1137   1.157       .  T
C1121      N1139   1.157       .  T
C1122      C1123   1.407       .  A
C1122      C1127   1.455       .  S
C1123      C1124   1.423       .  A
C1123      C1129   1.444       .  S
C1124      C1125   1.422       .  A
C1125      C1126   1.409       .  A
C1125      C1128   1.448       .  S
C1126      C1130   1.451       .  S
C1127      N1134   1.157       .  T
C1128      N1135   1.157       .  T
C1129      N1133   1.157       .  T
C1130      N1136   1.157       .  T
C1131      N1140   1.158       .  T
C1132      N1138   1.158       .  T
C1141      C1142   1.413       .  A
C1141      C1146   1.417       .  A
C1141      C1159   1.451       .  S
C1142      C1147   1.507       .  S
C1142      C1143   1.412       .  A
C1143      C1144   1.411       .  A
C1143      C1148   1.453       .  S
C1144      C1145   1.423       .  A
C1144      C1160   1.453       .  S
C1145      C1146   1.422       .  A
C1146      C1149   1.451       .  S
C1147      C1150   1.409       .  A
C1147      C1154   1.407       .  A
C1148      N1165   1.158       .  T
C1149      N1167   1.158       .  T
C1150      C1151   1.415       .  A
C1150      C1155   1.451       .  S
C1151      C1152   1.424       .  A
C1151      C1157   1.447       .  S
C1152      C1153   1.425       .  A
C1153      C1154   1.413       .  A
C1153      C1156   1.444       .  S
C1154      C1158   1.454       .  S
C1155      N1162   1.157       .  T
C1156      N1163   1.157       .  T
C1157      N1161   1.157       .  T
C1158      N1164   1.157       .  T
C1159      N1168   1.157       .  T
C1160      N1166   1.157       .  T
C1169      C1170   1.408       .  A
C1169      C1174   1.416       .  A
C1169      C1187   1.450       .  S
C1170      C1175   1.502       .  S
C1170      C1171   1.407       .  A
C1171      C1172   1.411       .  A
C1171      C1176   1.454       .  S
C1172      C1173   1.419       .  A
C1172      C1188   1.442       .  S
C1173      C1174   1.421       .  A
C1174      C1177   1.447       .  S
C1175      C1178   1.409       .  A
C1175      C1182   1.409       .  A
C1176      N1193   1.157       .  T
C1177      N1195   1.157       .  T
C1178      C1179   1.411       .  A
C1178      C1183   1.452       .  S
C1179      C1180   1.425       .  A
C1179      C1185   1.452       .  S
C1180      C1181   1.423       .  A
C1181      C1182   1.416       .  A
C1181      C1184   1.450       .  S
C1182      C1186   1.451       .  S
C1183      N1190   1.157       .  T
C1184      N1191   1.157       .  T
C1185      N1189   1.158       .  T
C1186      N1192   1.157       .  T
C1187      N1196   1.157       .  T
C1188      N1194   1.156       .  T
C1197      C1198   1.406       .  A
C1197      C1202   1.410       .  A
C1197      C1215   1.456       .  S
C1198      C1203   1.508       .  S
C1198      C1199   1.411       .  A
C1199      C1200   1.417       .  A
C1199      C1204   1.450       .  S
C1200      C1201   1.422       .  A
C1200      C1216   1.447       .  S
C1201      C1202   1.425       .  A
C1202      C1205   1.440       .  S
C1203      C1206   1.418       .  A
C1203      C1210   1.416       .  A
C1204      N1221   1.157       .  T
C1205      N1223   1.157       .  T
C1206      C1207   1.410       .  A
C1206      C1211   1.452       .  S
C1207      C1208   1.409       .  A
C1207      C1213   1.450       .  S
C1208      C1209   1.411       .  A
C1209      C1210   1.414       .  A
C1209      C1212   1.449       .  S
C1210      C1214   1.450       .  S
C1211      N1218   1.157       .  T
C1212      N1219   1.157       .  T
C1213      N1217   1.157       .  T
C1214      N1220   1.157       .  T
C1215      N1224   1.157       .  T
C1216      N1222   1.157       .  T
C1225      C1226   1.409       .  A
C1225      C1230   1.415       .  A
C1225      C1243   1.451       .  S
C1226      C1231   1.504       .  S
C1226      C1227   1.404       .  A
C1227      C1228   1.410       .  A
C1227      C1232   1.456       .  S
C1228      C1229   1.424       .  A
C1228      C1244   1.440       .  S
C1229      C1230   1.420       .  A
C1230      C1233   1.447       .  S
C1231      C1234   1.411       .  A
C1231      C1238   1.408       .  A
C1232      N1249   1.157       .  T
C1233      N1251   1.157       .  T
C1234      C1235   1.411       .  A
C1234      C1239   1.454       .  S
C1235      C1236   1.427       .  A
C1235      C1241   1.453       .  S
C1236      C1237   1.428       .  A
C1237      C1238   1.414       .  A
C1237      C1240   1.451       .  S
C1238      C1242   1.452       .  S
C1239      N1246   1.157       .  T
C1240      N1247   1.158       .  T
C1241      N1245   1.158       .  T
C1242      N1248   1.157       .  T
C1243      N1252   1.157       .  T
C1244      N1250   1.157       .  T
C1253      C1254   1.406       .  A
C1253      C1258   1.408       .  A
C1253      C1271   1.452       .  S
C1254      C1259   1.495       .  S
C1254      C1255   1.406       .  A
C1255      C1256   1.413       .  A
C1255      C1260   1.451       .  S
C1256      C1257   1.426       .  A
C1256      C1272   1.451       .  S
C1257      C1258   1.427       .  A
C1258      C1261   1.452       .  S
C1259      C1262   1.403       .  A
C1259      C1266   1.405       .  A
C1260      N1277   1.157       .  T
C1261      N1279   1.158       .  T
C1262      C1263   1.410       .  A
C1262      C1267   1.456       .  S
C1263      C1264   1.424       .  A
C1263      C1269   1.441       .  S
C1264      C1265   1.421       .  A
C1265      C1266   1.412       .  A
C1265      C1268   1.447       .  S
C1266      C1270   1.450       .  S
C1267      N1274   1.157       .  T
C1268      N1275   1.157       .  T
C1269      N1273   1.157       .  T
C1270      N1276   1.157       .  T
C1271      N1280   1.157       .  T
C1272      N1278   1.157       .  T
C1281      C1282   1.406       .  A
C1281      C1286   1.412       .  A
C1281      C1299   1.454       .  S
C1282      C1287   1.507       .  S
C1282      C1283   1.412       .  A
C1283      C1284   1.414       .  A
C1283      C1288   1.451       .  S
C1284      C1285   1.418       .  A
C1284      C1300   1.446       .  S
C1285      C1286   1.422       .  A
C1286      C1289   1.441       .  S
C1287      C1290   1.413       .  A
C1287      C1294   1.418       .  A
C1288      N1305   1.157       .  T
C1289      N1307   1.157       .  T
C1290      C1291   1.410       .  A
C1290      C1295   1.453       .  S
C1291      C1292   1.412       .  A
C1291      C1297   1.446       .  S
C1292      C1293   1.413       .  A
C1293      C1294   1.414       .  A
C1293      C1296   1.451       .  S
C1294      C1298   1.450       .  S
C1295      N1302   1.157       .  T
C1296      N1303   1.157       .  T
C1297      N1301   1.155       .  T
C1298      N1304   1.157       .  T
C1299      N1308   1.157       .  T
C1300      N1306   1.157       .  T
C1309      C1310   1.410       .  A
C1309      C1314   1.413       .  A
C1309      C1327   1.452       .  S
C1310      C1315   1.502       .  S
C1310      C1311   1.407       .  A
C1311      C1312   1.413       .  A
C1311      C1316   1.452       .  S
C1312      C1313   1.428       .  A
C1312      C1328   1.451       .  S
C1313      C1314   1.425       .  A
C1314      C1317   1.451       .  S
C1315      C1318   1.407       .  A
C1315      C1322   1.404       .  A
C1316      N1333   1.157       .  T
C1317      N1335   1.157       .  T
C1318      C1319   1.415       .  A
C1318      C1323   1.451       .  S
C1319      C1320   1.424       .  A
C1319      C1325   1.445       .  S
C1320      C1321   1.426       .  A
C1321      C1322   1.411       .  A
C1321      C1324   1.442       .  S
C1322      C1326   1.455       .  S
C1323      N1330   1.157       .  T
C1324      N1331   1.157       .  T
C1325      N1329   1.157       .  T
C1326      N1332   1.157       .  T
C1327      N1336   1.157       .  T
C1328      N1334   1.158       .  T
C1337      C1338   1.411       .  A
C1337      C1342   1.412       .  A
C1337      C1355   1.451       .  S
C1338      C1343   1.501       .  S
C1338      C1339   1.409       .  A
C1339      C1340   1.411       .  A
C1339      C1344   1.449       .  S
C1340      C1341   1.419       .  A
C1340      C1356   1.452       .  S
C1341      C1342   1.418       .  A
C1342      C1345   1.451       .  S
C1343      C1346   1.407       .  A
C1343      C1350   1.407       .  A
C1344      N1361   1.157       .  T
C1345      N1363   1.157       .  T
C1346      C1347   1.411       .  A
C1346      C1351   1.456       .  S
C1347      C1348   1.422       .  A
C1347      C1353   1.443       .  S
C1348      C1349   1.424       .  A
C1349      C1350   1.415       .  A
C1349      C1352   1.446       .  S
C1350      C1354   1.451       .  S
C1351      N1358   1.157       .  T
C1352      N1359   1.157       .  T
C1353      N1357   1.157       .  T
C1354      N1360   1.157       .  T
C1355      N1364   1.157       .  T
C1356      N1362   1.158       .  T
C1365      C1366   1.402       .  A
C1365      C1370   1.411       .  A
C1365      C1383   1.454       .  S
C1366      C1371   1.496       .  S
C1366      C1367   1.404       .  A
C1367      C1368   1.413       .  A
C1367      C1372   1.452       .  S
C1368      C1369   1.424       .  A
C1368      C1384   1.446       .  S
C1369      C1370   1.425       .  A
C1370      C1373   1.443       .  S
C1371      C1374   1.404       .  A
C1371      C1378   1.407       .  A
C1372      N1389   1.157       .  T
C1373      N1391   1.157       .  T
C1374      C1375   1.411       .  A
C1374      C1379   1.454       .  S
C1375      C1376   1.430       .  A
C1375      C1381   1.452       .  S
C1376      C1377   1.425       .  A
C1377      C1378   1.412       .  A
C1377      C1380   1.451       .  S
C1378      C1382   1.450       .  S
C1379      N1386   1.157       .  T
C1380      N1387   1.157       .  T
C1381      N1385   1.158       .  T
C1382      N1388   1.157       .  T
C1383      N1392   1.157       .  T
C1384      N1390   1.157       .  T
C1393      C1394   1.408       .  A
C1393      C1398   1.414       .  A
C1393      C1411   1.452       .  S
C1394      C1399   1.505       .  S
C1394      C1395   1.409       .  A
C1395      C1396   1.411       .  A
C1395      C1400   1.454       .  S
C1396      C1397   1.421       .  A
C1396      C1412   1.444       .  S
C1397      C1398   1.421       .  A
C1398      C1401   1.446       .  S
C1399      C1402   1.410       .  A
C1399      C1406   1.412       .  A
C1400      N1417   1.157       .  T
C1401      N1419   1.157       .  T
C1402      C1403   1.412       .  A
C1402      C1407   1.452       .  S
C1403      C1404   1.424       .  A
C1403      C1409   1.450       .  S
C1404      C1405   1.422       .  A
C1405      C1406   1.413       .  A
C1405      C1408   1.452       .  S
C1406      C1410   1.452       .  S
C1407      N1414   1.157       .  T
C1408      N1415   1.157       .  T
C1409      N1413   1.158       .  T
C1410      N1416   1.158       .  T
C1411      N1420   1.157       .  T
C1412      N1418   1.157       .  T
C1421      C1422   1.403       .  A
C1421      C1426   1.411       .  A
C1421      C1439   1.454       .  S
C1422      C1427   1.496       .  S
C1422      C1423   1.404       .  A
C1423      C1424   1.414       .  A
C1423      C1428   1.451       .  S
C1424      C1425   1.424       .  A
C1424      C1440   1.445       .  S
C1425      C1426   1.424       .  A
C1426      C1429   1.443       .  S
C1427      C1430   1.411       .  A
C1427      C1434   1.409       .  A
C1428      N1445   1.157       .  T
C1429      N1447   1.157       .  T
C1430      C1431   1.413       .  A
C1430      C1435   1.450       .  S
C1431      C1432   1.413       .  A
C1431      C1437   1.450       .  S
C1432      C1433   1.416       .  A
C1433      C1434   1.410       .  A
C1433      C1436   1.450       .  S
C1434      C1438   1.452       .  S
C1435      N1442   1.157       .  T
C1436      N1443   1.157       .  T
C1437      N1441   1.157       .  T
C1438      N1444   1.157       .  T
C1439      N1448   1.157       .  T
C1440      N1446   1.157       .  T
C1449      C1450   1.408       .  A
C1449      C1454   1.409       .  A
C1449      C1467   1.453       .  S
C1450      C1455   1.492       .  S
C1450      C1451   1.407       .  A
C1451      C1452   1.407       .  A
C1451      C1456   1.452       .  S
C1452      C1453   1.424       .  A
C1452      C1468   1.452       .  S
C1453      C1454   1.424       .  A
C1454      C1457   1.452       .  S
C1455      C1458   1.405       .  A
C1455      C1462   1.404       .  A
C1456      N1473   1.157       .  T
C1457      N1475   1.158       .  T
C1458      C1459   1.408       .  A
C1458      C1463   1.453       .  S
C1459      C1460   1.422       .  A
C1459      C1465   1.447       .  S
C1460      C1461   1.424       .  A
C1461      C1462   1.410       .  A
C1461      C1464   1.444       .  S
C1462      C1466   1.454       .  S
C1463      N1470   1.157       .  T
C1464      N1471   1.157       .  T
C1465      N1469   1.157       .  T
C1466      N1472   1.157       .  T
C1467      N1476   1.157       .  T
C1468      N1474   1.158       .  T
C1477      C1478   1.413       .  A
C1477      C1482   1.408       .  A
C1477      C1495   1.455       .  S
C1478      C1483   1.500       .  S
C1478      C1479   1.408       .  A
C1479      C1480   1.413       .  A
C1479      C1484   1.452       .  S
C1480      C1481   1.427       .  A
C1480      C1496   1.452       .  S
C1481      C1482   1.424       .  A
C1482      C1485   1.453       .  S
C1483      C1486   1.411       .  A
C1483      C1490   1.404       .  A
C1484      N1501   1.157       .  T
C1485      N1503   1.158       .  T
C1486      C1487   1.413       .  A
C1486      C1491   1.450       .  S
C1487      C1488   1.418       .  A
C1487      C1493   1.446       .  S
C1488      C1489   1.419       .  A
C1489      C1490   1.404       .  A
C1489      C1492   1.441       .  S
C1490      C1494   1.454       .  S
C1491      N1498   1.157       .  T
C1492      N1499   1.157       .  T
C1493      N1497   1.157       .  T
C1494      N1500   1.157       .  T
C1495      N1504   1.158       .  T
C1496      N1502   1.158       .  T
C1505      C1506   1.410       .  A
C1505      C1510   1.408       .  A
C1505      C1523   1.451       .  S
C1506      C1511   1.494       .  S
C1506      C1507   1.413       .  A
C1507      C1508   1.410       .  A
C1507      C1512   1.452       .  S
C1508      C1509   1.413       .  A
C1508      C1524   1.451       .  S
C1509      C1510   1.415       .  A
C1510      C1513   1.453       .  S
C1511      C1514   1.408       .  A
C1511      C1518   1.407       .  A
C1512      N1529   1.157       .  T
C1513      N1531   1.157       .  T
C1514      C1515   1.408       .  A
C1514      C1519   1.454       .  S
C1515      C1516   1.417       .  A
C1515      C1521   1.444       .  S
C1516      C1517   1.418       .  A
C1517      C1518   1.410       .  A
C1517      C1520   1.447       .  S
C1518      C1522   1.451       .  S
C1519      N1526   1.157       .  T
C1520      N1527   1.158       .  T
C1521      N1525   1.157       .  T
C1522      N1528   1.157       .  T
C1523      N1532   1.157       .  T
C1524      N1530   1.157       .  T
C1533      C1534   1.404       .  A
C1533      C1538   1.412       .  A
C1533      C1551   1.452       .  S
C1534      C1539   1.495       .  S
C1534      C1535   1.404       .  A
C1535      C1536   1.411       .  A
C1535      C1540   1.455       .  S
C1536      C1537   1.425       .  A
C1536      C1552   1.443       .  S
C1537      C1538   1.423       .  A
C1538      C1541   1.446       .  S
C1539      C1542   1.413       .  A
C1539      C1546   1.411       .  A
C1540      N1557   1.157       .  T
C1541      N1559   1.157       .  T
C1542      C1543   1.410       .  A
C1542      C1547   1.450       .  S
C1543      C1544   1.411       .  A
C1543      C1549   1.451       .  S
C1544      C1545   1.413       .  A
C1545      C1546   1.408       .  A
C1545      C1548   1.452       .  S
C1546      C1550   1.451       .  S
C1547      N1554   1.157       .  T
C1548      N1555   1.157       .  T
C1549      N1553   1.157       .  T
C1550      N1556   1.157       .  T
C1551      N1560   1.157       .  T
C1552      N1558   1.157       .  T
