geometry optimzed in LAMMPS
_audit_creation_date              2020-12-01 
_audit_creation_method            'lammps2cif' 
_symmetry_space_group_name_H-M    'P1' 
_symmetry_Int_Tables_number       1 
_symmetry_cell_setting            triclinic 
loop_ 
_symmetry_equiv_pos_as_xyz 
  x,y,z 
_cell_length_a                    47.2058766 
_cell_length_b                    47.2894132039901 
_cell_length_c                    39.62555503681745 
_cell_angle_alpha                 90.01836235560094 
_cell_angle_beta                  89.98275744332577 
_cell_angle_gamma                 120.04298318023407 
loop_ 
_atom_site_label 
_atom_site_type_symbol 
_atom_site_fract_x 
_atom_site_fract_y 
_atom_site_fract_z 
_atom_site_charge 
C1          C  0.50529484  0.95229802  0.05280925    -0.10900
C2          C  0.47261782  0.93814006  0.06266963    -0.04800
C3          C  0.45170089  0.94805993  0.04898406    -0.10900
C4          C  0.46380109  0.97342351  0.02477318     0.10000
C5          C  0.49693351  0.98788540  0.01415491    -0.02700
C6          C  0.51778970  0.97729327  0.02821383     0.09800
C7          C  0.55046514  0.99197894  0.01739317    -0.12700
C8          C  0.56240808  0.01625303  0.99273043    -0.12700
C9          C  0.54213339  0.02680640  0.97819298     0.09800
C10         C  0.50917962  0.01281435  0.98925030    -0.02700
C11         C  0.44367798  0.98435196  0.01057006    -0.12800
C12         C  0.45588682  0.00926203  0.98652250    -0.12800
C13         C  0.48849197  0.02375173  0.97548945     0.10000
C14         C  0.50116273  0.04894954  0.95106355    -0.10900
C15         C  0.53345890  0.06205314  0.94017914    -0.04800
C16         C  0.55397852  0.05132633  0.95314656    -0.10900
H17         H  0.56702448  0.98468487  0.02785785     0.07300
H18         H  0.58775230  0.02678601  0.98518508     0.07300
H19         H  0.41829381  0.97371498  0.01798603     0.07500
H20         H  0.43950498  0.01695182  0.97641316     0.07500
H21         H  0.46315295  0.91872662  0.08133533     0.03900
H22         H  0.54289514  0.08115590  0.92117019     0.03900
O23         O  0.57554628  0.81722276  0.28591034    -0.73000
O24         O  0.57838844  0.75605379  0.21628986    -0.74000
O25         O  0.57923370  0.81730979  0.21380205    -0.62600
O26         O  0.57430702  0.75614828  0.28824199    -0.71000
O27         O  0.52021793  0.73039904  0.28459327    -0.70600
O28         O  0.52506717  0.78985591  0.21026474    -0.61800
O29         O  0.52422272  0.72989279  0.21324333    -0.74300
O30         O  0.52147117  0.79076509  0.28184542    -0.73100
Cu31       Cu  0.57883807  0.78766202  0.25112275     1.04600
Cu32       Cu  0.52096847  0.75938076  0.24738459     1.04300
C33         C  0.54785216  0.81340738  0.29504661     0.93200
C34         C  0.55163366  0.73321199  0.20388009     0.92300
C35         C  0.55273177  0.81302421  0.20026997     0.84500
C36         C  0.54618673  0.73354468  0.29817898     0.90700
O37         O  0.42623457  0.24130367  0.71448320    -0.73000
O38         O  0.42634231  0.18240150  0.78856390    -0.74000
O39         O  0.42416435  0.24211641  0.78615595    -0.62600
O40         O  0.42813556  0.18170677  0.71652756    -0.71000
O41         O  0.48231933  0.21032631  0.71816524    -0.70600
O42         O  0.47840260  0.26988741  0.78817788    -0.61800
O43         O  0.48055568  0.21122448  0.79008013    -0.74300
O44         O  0.48042730  0.26923169  0.71665664    -0.73100
Cu45       Cu  0.42428422  0.21081786  0.75141374     1.04600
Cu46       Cu  0.48223956  0.24108442  0.75331731     1.04300
C47         C  0.45359306  0.26482879  0.70406833     0.93200
C48         C  0.45357702  0.18765290  0.80103444     0.92300
C49         C  0.45074833  0.26567714  0.79799635     0.84500
C50         C  0.45591655  0.18669339  0.70609029     0.90700
O51         O  0.75913642  0.18060038  0.71195647    -0.73000
O52         O  0.81761932  0.24051763  0.78596459    -0.74000
O53         O  0.75733139  0.17947783  0.78423049    -0.62600
O54         O  0.81974156  0.24183030  0.71401201    -0.71000
O55         O  0.79137025  0.26765696  0.71327052    -0.70600
O56         O  0.73020957  0.20648925  0.78276268    -0.61800
O57         O  0.78942384  0.26647314  0.78480934    -0.74300
O58         O  0.73224699  0.20790043  0.71132591    -0.73100
Cu59       Cu  0.78944836  0.20959463  0.74903636     1.04600
Cu60       Cu  0.75989966  0.23797023  0.74804009     1.04300
C61         C  0.73654962  0.18509679  0.69985279     0.93200
C62         C  0.81254403  0.26302221  0.79705398     0.92300
C63         C  0.73397797  0.18352208  0.79478403     0.84500
C64         C  0.81518823  0.26455559  0.70257479     0.90700
O65         O  0.20856043  0.72938683  0.21308096    -0.73000
O66         O  0.26870196  0.78913569  0.28394154    -0.74000
O67         O  0.20804485  0.73052451  0.28448106    -0.62600
O68         O  0.26896245  0.78773963  0.21259121    -0.71000
O69         O  0.24343441  0.81629112  0.21050836    -0.70600
O70         O  0.18146274  0.75807668  0.28368185    -0.61800
O71         O  0.24348343  0.81801204  0.28288772    -0.74300
O72         O  0.18188796  0.75682960  0.21116362    -0.73100
Cu73       Cu  0.23936774  0.75827943  0.24860821     1.04600
Cu74       Cu  0.21160125  0.78835669  0.24706940     1.04300
C75         C  0.18607104  0.73363126  0.20046802     0.93200
C76         C  0.26589583  0.81307428  0.29469427     0.92300
C77         C  0.18518646  0.73498208  0.29562843     0.84500
C78         C  0.26584729  0.81082336  0.19982100     0.90700
C79         C  0.95608750  0.50471846  0.94110096    -0.10900
C80         C  0.94267231  0.47232075  0.93064025    -0.04800
C81         C  0.95317959  0.45178884  0.94398031    -0.10900
C82         C  0.97820945  0.46392014  0.96862813     0.10000
C83         C  0.99206934  0.49681749  0.97970556    -0.02700
C84         C  0.98099189  0.51733658  0.96587551     0.09800
C85         C  0.99494719  0.54972836  0.97728003    -0.12700
C86         C  0.01930057  0.56184241  0.00194803    -0.12700
C87         C  0.03051894  0.54197114  0.01609181     0.09800
C88         C  0.01687209  0.50914756  0.00483313    -0.02700
C89         C  0.98949639  0.44407225  0.98268241    -0.12800
C90         C  0.01404229  0.45625734  0.00717840    -0.12800
C91         C  0.02799924  0.48864513  0.01862629     0.10000
C92         C  0.05301121  0.50131807  0.04331574    -0.10900
C93         C  0.06623919  0.53368794  0.05390203    -0.04800
C94         C  0.05533197  0.55406191  0.04094561    -0.10900
H95         H  0.98710955  0.56596917  0.96715616     0.07300
H96         H  0.02937244  0.58700196  0.00981245     0.07300
H97         H  0.97940151  0.41891803  0.97478758     0.07500
H98         H  0.02200638  0.44006474  0.01714997     0.07500
H99         H  0.92332787  0.46274303  0.91185705     0.03900
H100        H  0.08534103  0.54319243  0.07294834     0.03900
C101        C  0.95119932  0.50395958  0.55184010    -0.10900
C102        C  0.94004725  0.47260856  0.56465185    -0.04800
C103        C  0.95209476  0.45283097  0.55289734    -0.10900
C104        C  0.97597227  0.46446107  0.52708680     0.10000
C105        C  0.98794031  0.49648583  0.51403691    -0.02700
C106        C  0.97577001  0.51648999  0.52670784     0.09800
C107        C  0.98814457  0.54815155  0.51362806    -0.12700
C108        C  0.01192674  0.55998132  0.48833313    -0.12700
C109        C  0.02390044  0.54043327  0.47500694     0.09800
C110        C  0.01183432  0.50837195  0.48799868    -0.02700
C111        C  0.98804437  0.44496201  0.51391122    -0.12800
C112        C  0.01137321  0.45656379  0.48822436    -0.12800
C113        C  0.02352469  0.48811355  0.47492020     0.10000
C114        C  0.04713455  0.50006956  0.44887446    -0.10900
C115        C  0.05875477  0.53163502  0.43638754    -0.04800
C116        C  0.04757899  0.55193609  0.44894803    -0.10900
H117        H  0.97947095  0.56401645  0.52287487     0.07300
H118        H  0.02070662  0.58452874  0.47907039     0.07300
H119        H  0.97940270  0.42048298  0.52330852     0.07500
H120        H  0.01983222  0.44057310  0.47881836     0.07500
H121        H  0.92126100  0.46323377  0.58403597     0.03900
H122        H  0.07702250  0.54065754  0.41649219     0.03900
O123        O  0.20559435  0.47713171  0.28463116    -0.73000
O124        O  0.26673573  0.47651740  0.21481331    -0.74000
O125        O  0.20709607  0.47669557  0.21310756    -0.62600
O126        O  0.26543018  0.47727459  0.28637775    -0.71000
O127        O  0.23857932  0.42314087  0.28762669    -0.70600
O128        O  0.17918153  0.42255802  0.21301181    -0.61800
O129        O  0.24005364  0.42233664  0.21573516    -0.74300
O130        O  0.17765483  0.42298744  0.28521772    -0.73100
Cu131      Cu  0.23707656  0.47866759  0.24971249     1.04600
Cu132      Cu  0.20785001  0.42077323  0.25039240     1.04300
C133        C  0.18204718  0.45037300  0.29607889     0.93200
C134        C  0.26328131  0.44939336  0.20439226     0.92300
C135        C  0.18402284  0.44987528  0.20129591     0.84500
C136        C  0.26150326  0.45058129  0.29867508     0.90700
O137        O  0.81663604  0.57817125  0.71278618    -0.73000
O138        O  0.75655796  0.57905369  0.78562937    -0.74000
O139        O  0.81802475  0.57970213  0.78484464    -0.63800
O140        O  0.75595786  0.57797486  0.71352767    -0.71000
O141        O  0.72943089  0.52383011  0.71460341    -0.70600
O142        O  0.79041515  0.52553827  0.78579995    -0.61800
O143        O  0.73034858  0.52490501  0.78618443    -0.74300
O144        O  0.78917314  0.52404370  0.71431182    -0.73100
Cu145      Cu  0.78777266  0.58071438  0.74921149     1.04600
Cu146      Cu  0.75896488  0.52282056  0.75029495     1.04300
C147        C  0.81204830  0.55067610  0.70194945     0.93200
C148        C  0.73382544  0.55180704  0.79730175     0.92300
C149        C  0.81397542  0.55267788  0.79645385     0.84500
C150        C  0.73303606  0.55052688  0.70262376     0.90700
C151        C  0.45484730  0.49218852  0.06366432    -0.10900
C152        C  0.47700856  0.52229862  0.07805086    -0.04800
C153        C  0.50765801  0.54274278  0.06368499    -0.10900
C154        C  0.51728393  0.53237511  0.03458709     0.10000
C155        C  0.49536300  0.50156861  0.01992136    -0.02700
C156        C  0.46393227  0.48143454  0.03438019     0.09800
C157        C  0.44258910  0.45118553  0.01925544    -0.12700
C158        C  0.45175372  0.44094101  0.99026315    -0.12700
C159        C  0.48257288  0.46060054  0.97532615     0.09800
C160        C  0.50463635  0.49122440  0.99030709    -0.02700
C161        C  0.54814175  0.55200104  0.01977006    -0.12800
C162        C  0.55737121  0.54172532  0.99092092    -0.12800
C163        C  0.53597611  0.51155644  0.97572358     0.10000
C164        C  0.54485906  0.50127865  0.94603033    -0.10900
C165        C  0.52261914  0.47146345  0.93126713    -0.04800
C166        C  0.49190424  0.45081810  0.94550185    -0.10900
H167        H  0.41859346  0.43515999  0.02979933     0.07300
H168        H  0.43434647  0.41757205  0.97941784     0.07300
H169        H  0.56546348  0.57547674  0.03049640     0.07500
H170        H  0.58134663  0.55779708  0.98038050     0.07500
H171        H  0.46950295  0.53085294  0.09985498     0.03900
H172        H  0.52993332  0.46353377  0.90884418     0.03900
C173        C  0.44278802  0.49818615  0.45656430    -0.10900
C174        C  0.46226175  0.52977746  0.44402176    -0.04800
C175        C  0.49406498  0.55027889  0.45561902    -0.10900
C176        C  0.50723382  0.53892206  0.48070691     0.10000
C177        C  0.48776481  0.50680145  0.49385397    -0.02700
C178        C  0.45539352  0.48628903  0.48172358     0.09800
C179        C  0.43660609  0.45468823  0.49514177    -0.12700
C180        C  0.44949940  0.44311079  0.51968644    -0.12700
C181        C  0.48149220  0.46287241  0.53191664     0.09800
C182        C  0.50072778  0.49517066  0.51912309    -0.02700
C183        C  0.53906567  0.55883524  0.49321580    -0.12800
C184        C  0.55182805  0.54738090  0.51793920    -0.12800
C185        C  0.53315417  0.51566212  0.53107911     0.10000
C186        C  0.54612250  0.50360530  0.55558275    -0.10900
C187        C  0.52706302  0.47178937  0.56763489    -0.04800
C188        C  0.49522492  0.45115718  0.55608111    -0.10900
H189        H  0.41183012  0.43859203  0.48653417     0.07300
H190        H  0.43421517  0.41846714  0.52895983     0.07300
H191        H  0.55439432  0.58345127  0.48388984     0.07500
H192        H  0.57655457  0.56356728  0.52663651     0.07500
H193        H  0.45235559  0.53868311  0.42470695     0.03900
H194        H  0.53751934  0.46263971  0.58608521     0.03900
C195        C  0.50027075  0.94783543  0.45143877    -0.10900
C196        C  0.46885037  0.93675445  0.43865305    -0.04800
C197        C  0.44967446  0.95002452  0.44899479    -0.10900
C198        C  0.46209391  0.97542906  0.47316705     0.10000
C199        C  0.49396581  0.98701336  0.48660179    -0.02700
C200        C  0.51324554  0.97332071  0.47557021     0.09800
C201        C  0.54455921  0.98501255  0.48942495    -0.12700
C202        C  0.55693640  0.00986342  0.51350271    -0.12700
C203        C  0.53830550  0.02366668  0.52481561     0.09800
C204        C  0.50644074  0.01207965  0.51140787    -0.02700
C205        C  0.44344448  0.98919686  0.48458733    -0.12800
C206        C  0.45569050  0.01377821  0.50903088    -0.12800
C207        C  0.48701490  0.02544989  0.52285278     0.10000
C208        C  0.49972438  0.05030386  0.54770152    -0.10900
C209        C  0.53121993  0.06154972  0.56029290    -0.04800
C210        C  0.55060623  0.04877884  0.54926305    -0.10900
H211        H  0.55972399  0.97494002  0.48181217     0.07300
H212        H  0.58122327  0.01808747  0.52337455     0.07300
H213        H  0.41912210  0.98090753  0.47478097     0.07500
H214        H  0.44041722  0.02360244  0.51707348     0.07500
H215        H  0.45902003  0.91724149  0.42008461     0.03900
H216        H  0.54088772  0.08071252  0.57924667     0.03900
C217        C  0.68029774  0.57343640  0.85067478    -0.10900
C218        C  0.66299805  0.54504711  0.87034385     0.06200
C219        C  0.67045067  0.51993346  0.86693244    -0.09700
C220        C  0.69390335  0.52262183  0.84368693    -0.11300
C221        C  0.71091423  0.55070639  0.82359033    -0.01100
C222        C  0.70435551  0.57641836  0.82775780    -0.10200
C223        C  0.63550629  0.54005487  0.89256942     0.06300
H224        H  0.65721892  0.49761925  0.88139059     0.08200
H225        H  0.69844486  0.50241414  0.84114342     0.11600
H226        H  0.71697549  0.59827072  0.81251232     0.11900
H227        H  0.67494480  0.59313173  0.85281587     0.08200
C228        C  0.63241142  0.52715698  0.92522737    -0.10900
C229        C  0.60377812  0.51706595  0.94395987    -0.10200
C230        C  0.57768372  0.51947171  0.93024678    -0.01100
C231        C  0.58132706  0.53384576  0.89837767    -0.11300
C232        C  0.61014526  0.54437166  0.87981200    -0.09700
H233        H  0.65163175  0.52362583  0.93565425     0.08200
H234        H  0.60116769  0.50552880  0.96826002     0.11900
H235        H  0.56117524  0.53531699  0.88716509     0.11600
H236        H  0.61171924  0.55385070  0.85459316     0.08200
C237        C  0.68525617  0.57513926  0.64412892    -0.10900
C238        C  0.66461712  0.54547900  0.62767858     0.06200
C239        C  0.66755615  0.51802771  0.63512413    -0.09700
C240        C  0.69001052  0.51988013  0.65916754    -0.11300
C241        C  0.71036594  0.54934636  0.67608623    -0.01100
C242        C  0.70819258  0.57715098  0.66789559    -0.10200
C243        C  0.63814970  0.54187782  0.60483914     0.06300
H244        H  0.65161456  0.49474601  0.62317708     0.08200
H245        H  0.69117439  0.49806267  0.66475506     0.11600
H246        H  0.72359651  0.60020307  0.68048205     0.11900
H247        H  0.68339243  0.59661935  0.63881129     0.08200
C248        C  0.61576134  0.55138179  0.61562967    -0.10900
C249        C  0.58670034  0.54138728  0.59770827    -0.10200
C250        C  0.57996027  0.52222429  0.56857398    -0.01100
C251        C  0.60346290  0.51497232  0.55631631    -0.11300
C252        C  0.63235367  0.52473112  0.57429940    -0.09700
H253        H  0.61952041  0.56430262  0.63924939     0.08200
H254        H  0.56848488  0.54661635  0.60782893     0.11900
H255        H  0.59837197  0.49978711  0.53413770     0.11600
H256        H  0.64933924  0.51728251  0.56538726     0.08200
C257        C  0.32644531  0.47733789  0.13464181    -0.10900
C258        C  0.33520134  0.45297130  0.13501605     0.06200
C259        C  0.31879444  0.42641745  0.15721993    -0.09700
C260        C  0.29450061  0.42456827  0.17896862    -0.11300
C261        C  0.28671159  0.44961672  0.17943067    -0.01100
C262        C  0.30270291  0.47583989  0.15683672    -0.10200
C263        C  0.36325152  0.45697325  0.11433381     0.06300
H264        H  0.32507096  0.40731062  0.15801294     0.08200
H265        H  0.28263935  0.40416374  0.19625120     0.11600
H266        H  0.29708345  0.49541984  0.15659190     0.11900
H267        H  0.33894540  0.49828622  0.11813069     0.08200
C268        C  0.36690206  0.46754716  0.08061590    -0.10900
C269        C  0.39583019  0.47628287  0.06293050    -0.10200
C270        C  0.42164696  0.47479621  0.07874155    -0.01100
C271        C  0.41742319  0.46270591  0.11179828    -0.11300
C272        C  0.38836628  0.45357234  0.12934356    -0.09700
H273        H  0.34786363  0.47026399  0.06840303     0.08200
H274        H  0.39889175  0.48614490  0.03767979     0.11900
H275        H  0.43734540  0.46203809  0.12463387     0.11600
H276        H  0.38640681  0.44588961  0.15538014     0.08200
C277        C  0.35888185  0.47924843  0.43038709    -0.10900
C278        C  0.35413735  0.46076056  0.40095124     0.06200
C279        C  0.37596652  0.44939880  0.39397763    -0.09700
C280        C  0.40353099  0.45882218  0.41441457    -0.11300
C281        C  0.40942740  0.47940814  0.44224047    -0.01100
C282        C  0.38631451  0.48856875  0.45074564    -0.10200
C283        C  0.32903360  0.45692903  0.37579456     0.06300
H284        H  0.37309740  0.43533819  0.37138498     0.08200
H285        H  0.42151923  0.45214996  0.40704597     0.11600
H286        H  0.39076833  0.50491680  0.47177399     0.11900
H287        H  0.34224509  0.48797528  0.43668380     0.08200
C288        C  0.30966926  0.42731965  0.35858262    -0.10900
C289        C  0.28710772  0.42481009  0.33396557    -0.10200
C290        C  0.28395199  0.45204752  0.32572815    -0.01100
C291        C  0.30335521  0.48154689  0.34300258    -0.11300
C292        C  0.32547475  0.48392443  0.36773169    -0.09700
H293        H  0.31193526  0.40612320  0.36423251     0.08200
H294        H  0.27262048  0.40181126  0.32096603     0.11900
H295        H  0.30158781  0.50302143  0.33729433     0.11600
H296        H  0.34045927  0.50725331  0.37998516     0.08200
C297        C  0.10948128  0.47614717  0.42597580    -0.10900
C298        C  0.09687074  0.45961213  0.39528818     0.06200
C299        C  0.06497389  0.45141727  0.38571546    -0.09700
C300        C  0.04734126  0.46231699  0.40488240    -0.11300
C301        C  0.06121713  0.48111440  0.43401664    -0.01100
C302        C  0.09183307  0.48689863  0.44512140    -0.10200
C303        C  0.11875514  0.45570842  0.37116500     0.06300
H304        H  0.05476305  0.43889193  0.36211067     0.08200
H305        H  0.02386154  0.45800779  0.39579362     0.11600
H306        H  0.10296307  0.50159180  0.46740413     0.11900
H307        H  0.13386691  0.48246106  0.43409550     0.08200
C308        C  0.14984052  0.48259377  0.36448639    -0.10900
C309        C  0.17016811  0.48061419  0.34022664    -0.10200
C310        C  0.16015495  0.45156034  0.32219184    -0.01100
C311        C  0.12923069  0.42434016  0.32915576    -0.11300
C312        C  0.10853241  0.42651460  0.35320823    -0.09700
H313        H  0.15812879  0.50558907  0.37743679     0.08200
H314        H  0.19382432  0.50199574  0.33555550     0.11900
H315        H  0.12082402  0.40164257  0.31557436     0.11600
H316        H  0.08459897  0.40547797  0.35778596     0.08200
C317        C  0.88336407  0.52026575  0.57351741    -0.10900
C318        C  0.89608076  0.54017356  0.60225005     0.06200
C319        C  0.92925917  0.55274332  0.61048001    -0.09700
C320        C  0.94848995  0.54330032  0.59201106    -0.11300
C321        C  0.93489955  0.52151645  0.56488139    -0.01100
C322        C  0.90258487  0.51096484  0.55507206    -0.10200
C323        C  0.87383604  0.54414966  0.62584514     0.06300
H324        H  0.93962540  0.56787506  0.63263558     0.08200
H325        H  0.97321035  0.55115162  0.60029444     0.11600
H326        H  0.89160862  0.49378471  0.53447261     0.11900
H327        H  0.85800146  0.51052015  0.56635528     0.08200
C328        C  0.88304145  0.57428118  0.64138224    -0.10900
C329        C  0.86270077  0.57680623  0.66557964    -0.10200
C330        C  0.83305578  0.54911168  0.67502748    -0.01100
C331        C  0.82373984  0.51917951  0.65903021    -0.11300
C332        C  0.84378400  0.51676042  0.63470726    -0.09700
H333        H  0.90605403  0.59579175  0.63496747     0.08200
H334        H  0.87050979  0.60020175  0.67742719     0.11900
H335        H  0.80101172  0.49737952  0.66558036     0.11600
H336        H  0.83623190  0.49309180  0.62363469     0.08200
C337        C  0.06963828  0.45240628  0.10750585    -0.10900
C338        C  0.10210028  0.46137652  0.09937330     0.06200
C339        C  0.11572088  0.47877062  0.06931154    -0.09700
C340        C  0.09838597  0.48931932  0.04935796    -0.11300
C341        C  0.06695826  0.48242964  0.05883774    -0.01100
C342        C  0.05226075  0.46303391  0.08745050    -0.10200
C343        C  0.12321795  0.45675502  0.12408486     0.06300
H344        H  0.14051914  0.48570457  0.06216843     0.08200
H345        H  0.11026780  0.50460898  0.02762860     0.11600
H346        H  0.02823832  0.45800765  0.09548323     0.11900
H347        H  0.05859244  0.43927186  0.13061449     0.08200
C348        C  0.15457925  0.48304550  0.13115075    -0.10900
C349        C  0.17419073  0.48035788  0.15577529    -0.10200
C350        C  0.16318586  0.45120910  0.17397904    -0.01100
C351        C  0.13208541  0.42449877  0.16653107    -0.11300
C352        C  0.11212176  0.42736112  0.14200933    -0.09700
H353        H  0.16365320  0.50619536  0.11828648     0.08200
H354        H  0.19801720  0.50138910  0.16077124     0.11900
H355        H  0.12290491  0.40174923  0.18021170     0.11600
H356        H  0.08803517  0.40669761  0.13710187     0.08200
C357        C  0.89374447  0.52956679  0.92164533    -0.10900
C358        C  0.90362304  0.54339612  0.88933962     0.06200
C359        C  0.93394935  0.54919505  0.87674294    -0.09700
C360        C  0.95270151  0.53901260  0.89500387    -0.11300
C361        C  0.94163737  0.52337205  0.92628234    -0.01100
C362        C  0.91254795  0.51959309  0.93989557    -0.10200
C363        C  0.88052140  0.54775034  0.86738872     0.06300
H364        H  0.94202532  0.55947364  0.85181010     0.08200
H365        H  0.97478234  0.54148434  0.88382880     0.11600
H366        H  0.90339655  0.50707332  0.96372352     0.11900
H367        H  0.87065012  0.52506230  0.93211232     0.08200
C368        C  0.84772682  0.52259809  0.86529995    -0.10900
C369        C  0.82614504  0.52473715  0.84281145    -0.10200
C370        C  0.83662902  0.55224365  0.82204423    -0.01100
C371        C  0.86914068  0.57800847  0.82478684    -0.11300
C372        C  0.89101871  0.57561656  0.84702062    -0.09700
H373        H  0.83899457  0.50061771  0.88024078     0.08200
H374        H  0.80123703  0.50454611  0.84134818     0.11900
H375        H  0.87790783  0.59944820  0.80895574     0.11600
H376        H  0.91616095  0.59538180  0.84813986     0.08200
C377        C  0.36500289  0.88536547  0.42414727    -0.10900
C378        C  0.36052312  0.89822217  0.39394311     0.06200
C379        C  0.38309575  0.93079338  0.38540845    -0.09700
C380        C  0.41105400  0.94914367  0.40526710    -0.11300
C381        C  0.41652672  0.93529171  0.43408269    -0.01100
C382        C  0.39277677  0.90370865  0.44397734    -0.10200
C383        C  0.33498733  0.87636087  0.36955519     0.06300
H384        H  0.38037693  0.94119539  0.36214062     0.08200
H385        H  0.42949684  0.97324520  0.39688817     0.11600
H386        H  0.39687048  0.89246977  0.46583229     0.11900
H387        H  0.34783904  0.86044070  0.43147033     0.08200
C388        C  0.33170275  0.84586614  0.36189436    -0.10900
C389        C  0.30915172  0.82548436  0.33782548    -0.10200
C390        C  0.28900320  0.83487247  0.32089046    -0.01100
C391        C  0.29189893  0.86523217  0.32879083    -0.11300
C392        C  0.31493025  0.88594436  0.35271327    -0.09700
H393        H  0.34721463  0.83806656  0.37399940     0.08200
H394        H  0.30762740  0.80231069  0.33239412     0.11900
H395        H  0.27679363  0.87318799  0.31609497     0.11600
H396        H  0.31704490  0.90937756  0.35812214     0.08200
C397        C  0.15570135  0.66907193  0.13236876    -0.10900
C398        C  0.12709855  0.66819681  0.12103296     0.06200
C399        C  0.11782951  0.68936643  0.13593484    -0.09700
C400        C  0.13703874  0.71109863  0.16155802    -0.11300
C401        C  0.16547930  0.71154435  0.17303712    -0.01100
C402        C  0.17454759  0.69034900  0.15798279    -0.10200
C403        C  0.10659835  0.64365235  0.09516213     0.06300
H404        H  0.09582200  0.68912610  0.12772017     0.08200
H405        H  0.12945211  0.72717685  0.17264268     0.11600
H406        H  0.19631715  0.69004774  0.16606913     0.11900
H407        H  0.16314573  0.65262111  0.12197321     0.08200
C408        C  0.07273864  0.62331076  0.10009016    -0.10900
C409        C  0.05499753  0.59537328  0.08009574    -0.10200
C410        C  0.07084490  0.58761380  0.05483940    -0.01100
C411        C  0.10394835  0.60938264  0.04803532    -0.11300
C412        C  0.12161474  0.63724917  0.06786137    -0.09700
H413        H  0.06056988  0.62752870  0.12101664     0.08200
H414        H  0.02954603  0.57855304  0.08598031     0.11900
H415        H  0.11661209  0.60362379  0.02883422     0.11600
H416        H  0.14756533  0.65277928  0.06314683     0.08200
C417        C  0.11237909  0.68860790  0.35478314    -0.10900
C418        C  0.12117265  0.66786421  0.37143467     0.06200
C419        C  0.15125794  0.67018435  0.36368677    -0.09700
C420        C  0.17190020  0.69221974  0.33942274    -0.11300
C421        C  0.16326072  0.71289751  0.32243215    -0.01100
C422        C  0.13345417  0.71125266  0.33072137    -0.10200
C423        C  0.09873322  0.64212021  0.39525780     0.06300
H424        H  0.15839857  0.65416931  0.37575698     0.08200
H425        H  0.19465889  0.69282464  0.33378367     0.11600
H426        H  0.12610565  0.72683400  0.31805781     0.11900
H427        H  0.08919598  0.68715229  0.36028702     0.08200
C428        C  0.11057593  0.63825851  0.42645901    -0.10900
C429        C  0.09237347  0.60994022  0.44563457    -0.10200
C430        C  0.06204452  0.58500573  0.43392551    -0.01100
C431        C  0.04915111  0.58971236  0.40390663    -0.11300
C432        C  0.06725847  0.61821801  0.38481145    -0.09700
H433        H  0.13478964  0.65634431  0.43501378     0.08200
H434        H  0.10290728  0.60649792  0.46845032     0.11900
H435        H  0.02605343  0.57041702  0.39418607     0.11600
H436        H  0.05778701  0.62042625  0.36067818     0.08200
C437        C  0.67646370  0.15533214  0.62736288    -0.10900
C438        C  0.66889618  0.12271090  0.62391793     0.06200
C439        C  0.68545743  0.11126302  0.64427344    -0.09700
C440        C  0.70851774  0.13184285  0.66817032    -0.11300
C441        C  0.71488939  0.16400144  0.67253782    -0.01100
C442        C  0.69900419  0.17563617  0.65151539    -0.10200
C443        C  0.64166828  0.10035994  0.60135213     0.06300
H444        H  0.68015359  0.08624053  0.64206423     0.08200
H445        H  0.72041204  0.12226954  0.68405142     0.11600
H446        H  0.70359715  0.20039958  0.65414307     0.11900
H447        H  0.66384195  0.16476816  0.61241060     0.08200
C448        C  0.61712181  0.06978655  0.61328352    -0.10900
C449        C  0.58825715  0.05147005  0.59484628    -0.10200
C450        C  0.58371156  0.06324349  0.56405641    -0.01100
C451        C  0.60899011  0.09264998  0.55101060    -0.11300
C452        C  0.63777836  0.11104316  0.56946261    -0.09700
H453        H  0.61923140  0.06113118  0.63792086     0.08200
H454        H  0.56865281  0.02912689  0.60555728     0.11900
H455        H  0.60559949  0.10228486  0.52752308     0.11600
H456        H  0.65638483  0.13438319  0.55953895     0.08200
C457        C  0.89175127  0.32189347  0.65327183    -0.10900
C458        C  0.87938894  0.33546385  0.62988428     0.06200
C459        C  0.84557632  0.32421966  0.62996464    -0.09700
C460        C  0.82486381  0.30074390  0.65316875    -0.11300
C461        C  0.83726984  0.28763138  0.67677250    -0.01100
C462        C  0.87082768  0.29801147  0.67634675    -0.10200
C463        C  0.90148542  0.36277278  0.60699189     0.06300
H464        H  0.83516010  0.33445946  0.61293210     0.08200
H465        H  0.79905156  0.29308937  0.65292264     0.11600
H466        H  0.88099406  0.28838218  0.69447537     0.11900
H467        H  0.91760644  0.32983201  0.65385219     0.08200
C468        C  0.93202786  0.38791043  0.61849935    -0.10900
C469        C  0.95007908  0.41631286  0.59933132    -0.10200
C470        C  0.93805724  0.42001988  0.56829890    -0.01100
C471        C  0.90876523  0.39422433  0.55566651    -0.11300
C472        C  0.89077709  0.36576109  0.57468590    -0.09700
H473        H  0.94095628  0.38668995  0.64328799     0.08200
H474        H  0.97239212  0.43628309  0.60969377     0.11900
H475        H  0.89893586  0.39688095  0.53195120     0.11600
H476        H  0.86775498  0.34663532  0.56466038     0.08200
C477        C  0.88502482  0.31335790  0.85482531    -0.10900
C478        C  0.87468508  0.33270082  0.87194756     0.06200
C479        C  0.84318861  0.32757412  0.86533982    -0.09700
C480        C  0.82292580  0.30444415  0.84161822    -0.11300
C481        C  0.83348950  0.28566066  0.82391681    -0.01100
C482        C  0.86453766  0.28991154  0.83118088    -0.10200
C483        C  0.89711811  0.35978696  0.89475567     0.06300
H484        H  0.83458534  0.34235521  0.87756158     0.08200
H485        H  0.79908441  0.30166497  0.83672829     0.11600
H486        H  0.87334379  0.27579204  0.81791730     0.11900
H487        H  0.90906396  0.31657281  0.85948857     0.08200
C488        C  0.93008106  0.38059051  0.88577287    -0.10900
C489        C  0.94954423  0.40942581  0.90385696    -0.10200
C490        C  0.93644253  0.41780364  0.93127632    -0.01100
C491        C  0.90432431  0.39609202  0.94169990    -0.11300
C492        C  0.88489790  0.36725827  0.92375361    -0.09700
H493        H  0.94016957  0.37578485  0.86341938     0.08200
H494        H  0.97408579  0.42626684  0.89507719     0.11900
H495        H  0.89369917  0.40243691  0.96253117     0.11600
H496        H  0.85980414  0.35151406  0.93168936     0.08200
C497        C  0.43202228  0.11525643  0.64609995    -0.10900
C498        C  0.46168080  0.12492468  0.62919701     0.06200
C499        C  0.48924488  0.15496784  0.63783943    -0.09700
C500        C  0.48732072  0.17479562  0.66284710    -0.11300
C501        C  0.45768590  0.16529283  0.67968754    -0.01100
C502        C  0.42997162  0.13536389  0.67089077    -0.10200
C503        C  0.46480924  0.10339222  0.60383645     0.06300
H504        H  0.51260139  0.16284082  0.62574941     0.08200
H505        H  0.50911886  0.19768111  0.66893282     0.11600
H506        H  0.40678791  0.12732019  0.68342510     0.11900
H507        H  0.41039701  0.09222964  0.64000420     0.08200
C508        C  0.45253043  0.07004223  0.61064244    -0.10900
C509        C  0.46108833  0.05138697  0.58999710    -0.10200
C510        C  0.48171689  0.06569208  0.56208535    -0.01100
C511        C  0.49173922  0.09818018  0.55370685    -0.11300
C512        C  0.48330216  0.11683383  0.57432110    -0.09700
H513        H  0.43840769  0.05905733  0.63327473     0.08200
H514        H  0.45374024  0.02656781  0.59728861     0.11900
H515        H  0.50810567  0.10978014  0.53260173     0.11600
H516        H  0.49270745  0.14231964  0.56816348     0.08200
C517        C  0.46103690  0.36252128  0.92493286    -0.10900
C518        C  0.45305926  0.36151532  0.89059489     0.06200
C519        C  0.45209850  0.38827593  0.87650094    -0.09700
C520        C  0.46184159  0.41662101  0.89556689    -0.11300
C521        C  0.47209647  0.41843225  0.92918274    -0.01100
C522        C  0.47034782  0.39071003  0.94411312    -0.10200
C523        C  0.45051811  0.33495349  0.86851777     0.06300
H524        H  0.44632450  0.38823330  0.85004538     0.08200
H525        H  0.46358795  0.43796426  0.88342610     0.11600
H526        H  0.47868652  0.39179217  0.96978818     0.11900
H527        H  0.46183808  0.34213539  0.93637898     0.08200
C528        C  0.47574773  0.32738523  0.86880184    -0.10900
C529        C  0.47558039  0.30470943  0.84606613    -0.10200
C530        C  0.44981045  0.28851687  0.82297583    -0.01100
C531        C  0.42404209  0.29537265  0.82321578    -0.11300
C532        C  0.42463055  0.31875814  0.84548502    -0.09700
H533        H  0.49624120  0.33988405  0.88591914     0.08200
H534        H  0.49573587  0.29991032  0.84646148     0.11900
H535        H  0.40399607  0.28340457  0.80549039     0.11600
H536        H  0.40501271  0.32434271  0.84463630     0.08200
C537        C  0.48677823  0.33270601  0.63935058    -0.10900
C538        C  0.45879318  0.33413940  0.63000029     0.06200
C539        C  0.42855141  0.31176471  0.64460270    -0.09700
C540        C  0.42648479  0.28857263  0.66809702    -0.11300
C541        C  0.45470073  0.28762623  0.67770301    -0.01100
C542        C  0.48476261  0.30981781  0.66282516    -0.10200
C543        C  0.46213086  0.36008915  0.60630651     0.06300
H544        H  0.40655269  0.31222227  0.63787058     0.08200
H545        H  0.40297509  0.27185354  0.67921799     0.11600
H546        H  0.50698876  0.30982816  0.66963968     0.11900
H547        H  0.51058060  0.34997171  0.62921005     0.08200
C548        C  0.48398790  0.36922801  0.57898406    -0.10900
C549        C  0.49235481  0.39748568  0.56057956    -0.10200
C550        C  0.47886176  0.41711716  0.56882281    -0.01100
C551        C  0.45505498  0.40680841  0.59428622    -0.11300
C552        C  0.44659898  0.37836068  0.61282466    -0.09700
H553        H  0.49587909  0.35534867  0.57285480     0.08200
H554        H  0.51100258  0.40522177  0.54124211     0.11900
H555        H  0.44478014  0.42194306  0.60136202     0.11600
H556        H  0.42976906  0.37204862  0.63376773     0.08200
C557        C  0.51261847  0.84838773  0.35730211    -0.10900
C558        C  0.54073950  0.87397098  0.37233366     0.06200
C559        C  0.57163083  0.88012361  0.36135036    -0.09700
C560        C  0.57419583  0.86054621  0.33620991    -0.11300
C561        C  0.54589037  0.83481167  0.32131181    -0.01100
C562        C  0.51514365  0.82916368  0.33212135    -0.10200
C563        C  0.53693658  0.89438863  0.39845161     0.06300
H564        H  0.59369939  0.89980598  0.37245807     0.08200
H565        H  0.59825328  0.86553900  0.32845198     0.11600
H566        H  0.49282482  0.80970864  0.32118628     0.11900
H567        H  0.48851566  0.84351402  0.36474156     0.08200
C568        C  0.55314579  0.92861044  0.39540300    -0.10900
C569        C  0.54344128  0.94692382  0.41520075    -0.10200
C570        C  0.51775069  0.93125396  0.43851756    -0.01100
C571        C  0.50382466  0.89753031  0.44372748    -0.11300
C572        C  0.51333318  0.87929336  0.42393251    -0.09700
H573        H  0.57134919  0.94082012  0.37590607     0.08200
H574        H  0.55417479  0.97285763  0.41048675     0.11900
H575        H  0.48383094  0.88496298  0.46140871     0.11600
H576        H  0.50076261  0.85300932  0.42710244     0.08200
C577        C  0.53313459  0.63051430  0.07992170    -0.10900
C578        C  0.54640002  0.63518676  0.11257112     0.06200
C579        C  0.55195059  0.61104095  0.12650882    -0.09700
C580        C  0.54169778  0.58156475  0.10933558    -0.11300
C581        C  0.52649079  0.57620065  0.07769278    -0.01100
C582        C  0.52336432  0.60130320  0.06260350    -0.10200
C583        C  0.54970984  0.66258360  0.13376782     0.06300
H584        H  0.56185108  0.61390772  0.15174606     0.08200
H585        H  0.54378766  0.56221450  0.12156590     0.11600
H586        H  0.51121425  0.59735808  0.03843461     0.11900
H587        H  0.52873009  0.64878953  0.06857560     0.08200
C588        C  0.57768081  0.68146956  0.15357582    -0.10900
C589        C  0.57893785  0.70532073  0.17562358    -0.10200
C590        C  0.55193942  0.71011849  0.17875865    -0.01100
C591        C  0.52428168  0.69153945  0.15849627    -0.11300
C592        C  0.52327913  0.66825381  0.13613409    -0.09700
H593        H  0.59835929  0.67751848  0.15222861     0.08200
H594        H  0.60056241  0.71925127  0.19096431     0.11900
H595        H  0.50314480  0.69472236  0.16020245     0.11600
H596        H  0.50123322  0.65375192  0.12154686     0.08200
C597        C  0.50984415  0.63271198  0.42762751    -0.10900
C598        C  0.53120361  0.63924002  0.40029276     0.06200
C599        C  0.54458892  0.61888804  0.39494742    -0.09700
C600        C  0.53468094  0.59103275  0.41500372    -0.11300
C601        C  0.51164323  0.58350697  0.44086235    -0.01100
C602        C  0.50016668  0.60511714  0.44770134    -0.10200
C603        C  0.53597356  0.66456995  0.37522022     0.06300
H604        H  0.56086953  0.62325001  0.37385888     0.08200
H605        H  0.54327977  0.57425704  0.40895165     0.11600
H606        H  0.48204928  0.59944364  0.46724406     0.11900
H607        H  0.49936588  0.64813476  0.43240564     0.08200
C608        C  0.50851568  0.66492302  0.36214913    -0.10900
C609        C  0.51204355  0.68748911  0.33747105    -0.10200
C610        C  0.54318208  0.71051156  0.32529236    -0.01100
C611        C  0.57081651  0.71055146  0.33872424    -0.11300
C612        C  0.56720823  0.68757282  0.36329052    -0.09700
H613        H  0.48411759  0.64716417  0.37053272     0.08200
H614        H  0.49021144  0.68667722  0.32773923     0.11900
H615        H  0.59513516  0.72798206  0.32989923     0.11600
H616        H  0.58874798  0.68778331  0.37302779     0.08200
C617        C  0.68974208  0.11471592  0.85861174    -0.10900
C618        C  0.66757167  0.12303821  0.87278622     0.06200
C619        C  0.66724480  0.15077884  0.86073351    -0.09700
C620        C  0.68866273  0.16999929  0.83540153    -0.11300
C621        C  0.71119257  0.16215587  0.82137492    -0.01100
C622        C  0.71159689  0.13429389  0.83325434    -0.10200
C623        C  0.64344384  0.10260362  0.89892440     0.06300
H624        H  0.64990649  0.15736415  0.87053960     0.08200
H625        H  0.68754533  0.19117235  0.82686885     0.11600
H626        H  0.72863474  0.12758084  0.82287371     0.11900
H627        H  0.69032425  0.09330559  0.86733673     0.08200
C628        C  0.62355425  0.06868523  0.89446818    -0.10900
C629        C  0.59563713  0.05094906  0.91452421    -0.10200
C630        C  0.58754657  0.06691848  0.93932237    -0.01100
C631        C  0.60900162  0.10008719  0.94579241    -0.11300
C632        C  0.63681906  0.11773536  0.92591369    -0.09700
H633        H  0.62803945  0.05646022  0.87380499     0.08200
H634        H  0.57905380  0.02539250  0.90898826     0.11900
H635        H  0.60297579  0.11278406  0.96469319     0.11600
H636        H  0.65205182  0.14375294  0.93022545     0.08200
C637        C  0.47778756  0.11218344  0.93064394    -0.10900
C638        C  0.46329820  0.10177132  0.89865145     0.06200
C639        C  0.45651200  0.07089743  0.88689102    -0.09700
C640        C  0.46624904  0.05204921  0.90554903    -0.11300
C641        C  0.48254503  0.06354794  0.93642888    -0.01100
C642        C  0.48739150  0.09327469  0.94929473    -0.10200
C643        C  0.45876311  0.12439821  0.87606954     0.06300
H644        H  0.44576180  0.06232932  0.86222197     0.08200
H645        H  0.46300874  0.02951929  0.89487741     0.11600
H646        H  0.50046853  0.10278331  0.97279632     0.11900
H647        H  0.48301094  0.13565271  0.94058320     0.08200
C648        C  0.43119810  0.11296675  0.85497489    -0.10900
C649        C  0.42885433  0.13379497  0.83136921    -0.10200
C650        C  0.45428529  0.16630451  0.82799956    -0.01100
C651        C  0.48139610  0.17795347  0.84967639    -0.11300
C652        C  0.48351357  0.15733645  0.87355399    -0.09700
H653        H  0.41165087  0.08778922  0.85643846     0.08200
H654        H  0.40769518  0.12416442  0.81496523     0.11900
H655        H  0.50129128  0.20296047  0.84780880     0.11600
H656        H  0.50526867  0.16686458  0.88906567     0.08200
C657        C  0.57649124  0.88967801  0.14939003    -0.10900
C658        C  0.55028188  0.87851459  0.12652399     0.06200
C659        C  0.52646355  0.84519378  0.12638845    -0.09700
C660        C  0.52788892  0.82380386  0.14975118    -0.11300
C661        C  0.55351524  0.83510195  0.17332717    -0.01100
C662        C  0.57832920  0.86805859  0.17231753    -0.10200
C663        C  0.54556354  0.90169616  0.10528063     0.06300
H664        H  0.50582198  0.83600215  0.10931201     0.08200
H665        H  0.50850062  0.79847176  0.14985634     0.11600
H666        H  0.59827068  0.87740335  0.19027136     0.11900
H667        H  0.59514195  0.91527643  0.14998627     0.08200
C668        C  0.53668944  0.89475896  0.07111867    -0.10900
C669        C  0.52640569  0.91337141  0.05287542    -0.10200
C670        C  0.52461808  0.93901082  0.06859034    -0.01100
C671        C  0.53514762  0.94710124  0.10210994    -0.11300
C672        C  0.54582969  0.92878640  0.12023169    -0.09700
H673        H  0.53629424  0.87401263  0.05903319     0.08200
H674        H  0.51780009  0.90644492  0.02721889     0.11900
H675        H  0.53323361  0.96636333  0.11482787     0.11600
H676        H  0.55210281  0.93437667  0.14661650     0.08200
C677        C  0.31094260  0.87801106  0.13479224    -0.10900
C678        C  0.33373285  0.86983175  0.12206040     0.06200
C679        C  0.33321763  0.84173262  0.13440769    -0.09700
C680        C  0.31095085  0.82260193  0.15928078    -0.11300
C681        C  0.28849110  0.83096079  0.17252235    -0.01100
C682        C  0.28838586  0.85864289  0.15968316    -0.10200
C683        C  0.35968501  0.89137167  0.09786049     0.06300
H684        H  0.35081630  0.83507269  0.12563417     0.08200
H685        H  0.31168553  0.80139817  0.16846099     0.11600
H686        H  0.27127991  0.86562097  0.16924254     0.11900
H687        H  0.31072219  0.89948387  0.12564235     0.08200
C688        C  0.36936624  0.87766396  0.07197774    -0.10900
C689        C  0.39802907  0.89698342  0.05378735    -0.10200
C690        C  0.41740501  0.93039629  0.06091464    -0.01100
C691        C  0.40652575  0.94472894  0.08479468    -0.11300
C692        C  0.37774914  0.92536157  0.10307321    -0.09700
H693        H  0.35567579  0.85164655  0.06703188     0.08200
H694        H  0.40625508  0.88549500  0.03564477     0.11900
H695        H  0.42149437  0.97039249  0.09098097     0.11600
H696        H  0.37103743  0.93656720  0.12298399     0.08200
loop_ 
_geom_bond_atom_site_label_1 
_geom_bond_atom_site_label_2 
_geom_bond_distance 
_geom_bond_site_symmetry_2 
_ccdc_geom_bond_type 
C1            C2   1.395       .  A
C1            C6   1.413       .  A
C1          C670   1.481       .  S
C2            C3   1.398       .  A
C2           H21   1.086       .  S
C3            C4   1.414       .  A
C3          C690   1.479       .  S
C4            C5   1.421       .  A
C4           C11   1.407       .  A
C5            C6   1.423       .  A
C5           C10   1.420   1_564  A
C6            C7   1.404       .  A
C7            C8   1.394   1_564  A
C7           H17   1.083       .  S
C8            C9   1.406       .  A
C8           H18   1.083       .  S
C9           C10   1.421       .  A
C9           C16   1.412       .  A
C10          C13   1.423       .  A
C11          C12   1.396   1_564  A
C11          H19   1.082       .  S
C12          C13   1.405       .  A
C12          H20   1.083       .  S
C13          C14   1.415       .  A
C14          C15   1.396       .  A
C14         C641   1.481       .  S
C15          C16   1.397       .  A
C15          H22   1.086       .  S
C16         C630   1.478       .  S
O23         Cu31   2.024       .  S
O23          C33   1.279       .  A
O24         Cu31   2.027       .  S
O24          C34   1.280       .  A
O25         Cu31   2.032       .  S
O25          C35   1.281       .  A
O26         Cu31   2.028       .  S
O26          C36   1.280       .  A
O27         Cu32   2.002       .  S
O27          C36   1.278       .  A
O28         Cu32   2.000       .  S
O28          C35   1.277       .  A
O29         Cu32   2.003       .  S
O29          C34   1.278       .  A
O30         Cu32   2.008       .  S
O30          C33   1.279       .  A
Cu31        Cu32   2.370       .  S
C33         C561   1.486       .  S
C34         C590   1.483       .  S
C35         C661   1.481       .  S
C36         C610   1.486       .  S
O37         Cu45   2.024       .  S
O37          C47   1.280       .  A
O38         Cu45   2.028       .  S
O38          C48   1.280       .  A
O39         Cu45   2.023       .  S
O39          C49   1.279       .  A
O40         Cu45   2.022       .  S
O40          C50   1.279       .  A
O41         Cu46   2.015       .  S
O41          C50   1.279       .  A
O42         Cu46   2.010       .  S
O42          C49   1.279       .  A
O43         Cu46   2.003       .  S
O43          C48   1.277       .  A
O44         Cu46   2.001       .  S
O44          C47   1.278       .  A
Cu45        Cu46   2.370       .  S
C47         C541   1.483       .  S
C48         C650   1.482       .  S
C49         C530   1.482       .  S
C50         C501   1.486       .  S
O51         Cu59   2.030       .  S
O51          C61   1.280       .  A
O52         Cu59   2.025       .  S
O52          C62   1.280       .  A
O53         Cu59   2.027       .  S
O53          C63   1.280       .  A
O54         Cu59   2.028       .  S
O54          C64   1.280       .  A
O55         Cu60   1.997       .  S
O55          C64   1.277       .  A
O56         Cu60   1.996       .  S
O56          C63   1.278       .  A
O57         Cu60   2.000       .  S
O57          C62   1.277       .  A
O58         Cu60   1.996       .  S
O58          C61   1.277       .  A
Cu59        Cu60   2.371       .  S
C61         C441   1.480       .  S
C62         C481   1.482       .  S
C63         C621   1.483       .  S
C64         C461   1.478       .  S
O65         Cu73   1.993       .  S
O65          C75   1.277       .  A
O66         Cu73   1.996       .  S
O66          C76   1.277       .  A
O67         Cu73   1.997       .  S
O67          C77   1.277       .  A
O68         Cu73   1.995       .  S
O68          C78   1.277       .  A
O69         Cu74   2.028       .  S
O69          C78   1.280       .  A
O70         Cu74   2.035       .  S
O70          C77   1.281       .  A
O71         Cu74   2.033       .  S
O71          C76   1.281       .  A
O72         Cu74   2.030       .  S
O72          C75   1.280       .  A
Cu73        Cu74   2.369       .  S
C75         C401   1.483       .  S
C76         C390   1.485       .  S
C77         C421   1.486       .  S
C78         C681   1.483       .  S
C79          C80   1.396       .  A
C79          C84   1.414       .  A
C79         C361   1.480       .  S
C80          C81   1.397       .  A
C80          H99   1.086       .  S
C81          C82   1.414       .  A
C81         C490   1.479       .  S
C82          C83   1.422       .  A
C82          C89   1.406       .  A
C83          C84   1.423       .  A
C83          C88   1.421   1_656  A
C84          C85   1.405       .  A
C85          C86   1.395   1_656  A
C85          H95   1.083       .  S
C86          C87   1.406       .  A
C86          H96   1.083       .  S
C87          C88   1.422       .  A
C87          C94   1.414       .  A
C88          C91   1.423       .  A
C89          C90   1.396   1_656  A
C89          H97   1.083       .  S
C90          C91   1.405       .  A
C90          H98   1.083       .  S
C91          C92   1.415       .  A
C92          C93   1.397       .  A
C92         C341   1.483       .  S
C93          C94   1.398       .  A
C93         H100   1.086       .  S
C94         C410   1.481       .  S
C101        C102   1.397       .  A
C101        C106   1.414       .  A
C101        C321   1.479       .  S
C102        C103   1.395       .  A
C102        H121   1.086       .  S
C103        C104   1.413       .  A
C103        C470   1.480       .  S
C104        C105   1.423       .  A
C104        C111   1.405       .  A
C105        C106   1.422       .  A
C105        C110   1.420   1_655  A
C106        C107   1.406       .  A
C107        C108   1.396   1_655  A
C107        H117   1.083       .  S
C108        C109   1.406       .  A
C108        H118   1.083       .  S
C109        C110   1.423       .  A
C109        C116   1.415       .  A
C110        C113   1.421       .  A
C111        C112   1.394   1_655  A
C111        H119   1.083       .  S
C112        C113   1.406       .  A
C112        H120   1.083       .  S
C113        C114   1.413       .  A
C114        C115   1.398       .  A
C114        C301   1.479       .  S
C115        C116   1.398       .  A
C115        H122   1.086       .  S
C116        C430   1.482       .  S
O123       Cu131   2.005       .  S
O123        C133   1.278       .  A
O124       Cu131   2.006       .  S
O124        C134   1.278       .  A
O125       Cu131   1.996       .  S
O125        C135   1.277       .  A
O126       Cu131   1.999       .  S
O126        C136   1.277       .  A
O127       Cu132   2.033       .  S
O127        C136   1.281       .  A
O128       Cu132   2.037       .  S
O128        C135   1.281       .  A
O129       Cu132   2.022       .  S
O129        C134   1.279       .  A
O130       Cu132   2.024       .  S
O130        C133   1.279       .  A
Cu131      Cu132   2.370       .  S
C133        C310   1.483       .  S
C134        C261   1.480       .  S
C135        C350   1.485       .  S
C136        C290   1.485       .  S
O137       Cu145   2.029       .  S
O137        C147   1.280       .  A
O138       Cu145   2.035       .  S
O138        C148   1.281       .  A
O139       Cu145   2.026       .  S
O139        C149   1.279       .  A
O140       Cu145   2.019       .  S
O140        C150   1.279       .  A
O141       Cu146   2.004       .  S
O141        C150   1.278       .  A
O142       Cu146   2.003       .  S
O142        C149   1.278       .  A
O143       Cu146   1.997       .  S
O143        C148   1.277       .  A
O144       Cu146   1.997       .  S
O144        C147   1.277       .  A
Cu145      Cu146   2.370       .  S
C147        C330   1.483       .  S
C148        C221   1.483       .  S
C149        C370   1.482       .  S
C150        C241   1.482       .  S
C151        C152   1.398       .  A
C151        C156   1.417       .  A
C151        C270   1.483       .  S
C152        C153   1.397       .  A
C152        H171   1.086       .  S
C153        C154   1.414       .  A
C153        C581   1.481       .  S
C154        C155   1.422       .  A
C154        C161   1.405       .  A
C155        C156   1.422       .  A
C155        C160   1.422   1_554  A
C156        C157   1.406       .  A
C157        C158   1.397   1_554  A
C157        H167   1.083       .  S
C158        C159   1.406       .  A
C158        H168   1.083       .  S
C159        C160   1.423       .  A
C159        C166   1.417       .  A
C160        C163   1.422       .  A
C161        C162   1.394   1_554  A
C161        H169   1.083       .  S
C162        C163   1.405       .  A
C162        H170   1.082       .  S
C163        C164   1.414       .  A
C164        C165   1.396       .  A
C164        C230   1.482       .  S
C165        C166   1.399       .  A
C165        H172   1.086       .  S
C166        C521   1.485       .  S
C173        C174   1.396       .  A
C173        C178   1.414       .  A
C173        C281   1.480       .  S
C174        C175   1.396       .  A
C174        H193   1.086       .  S
C175        C176   1.414       .  A
C175        C601   1.481       .  S
C176        C177   1.423       .  A
C176        C183   1.405       .  A
C177        C178   1.422       .  A
C177        C182   1.420       .  A
C178        C179   1.406       .  A
C179        C180   1.397       .  A
C179        H189   1.083       .  S
C180        C181   1.406       .  A
C180        H190   1.083       .  S
C181        C182   1.423       .  A
C181        C188   1.416       .  A
C182        C185   1.422       .  A
C183        C184   1.394       .  A
C183        H191   1.083       .  S
C184        C185   1.405       .  A
C184        H192   1.083       .  S
C185        C186   1.412       .  A
C186        C187   1.395       .  A
C186        C250   1.478       .  S
C187        C188   1.397       .  A
C187        H194   1.086       .  S
C188        C550   1.483       .  S
C195        C196   1.398       .  A
C195        C200   1.415       .  A
C195        C570   1.485       .  S
C196        C197   1.396       .  A
C196        H215   1.086       .  S
C197        C198   1.414       .  A
C197        C381   1.480       .  S
C198        C199   1.422       .  A
C198        C205   1.406       .  A
C199        C200   1.424       .  A
C199        C204   1.421   1_565  A
C200        C201   1.405       .  A
C201        C202   1.395   1_565  A
C201        H211   1.082       .  S
C202        C203   1.405       .  A
C202        H212   1.083       .  S
C203        C204   1.421       .  A
C203        C210   1.412       .  A
C204        C207   1.424       .  A
C205        C206   1.397   1_565  A
C205        H213   1.083       .  S
C206        C207   1.405       .  A
C206        H214   1.083       .  S
C207        C208   1.416       .  A
C208        C209   1.397       .  A
C208        C510   1.482       .  S
C209        C210   1.395       .  A
C209        H216   1.086       .  S
C210        C450   1.478       .  S
C217        C218   1.407       .  A
C217        C222   1.405       .  A
C217        H227   1.084       .  S
C218        C219   1.404       .  A
C218        C223   1.486       .  S
C219        C220   1.396       .  A
C219        H224   1.083       .  S
C220        C221   1.405       .  A
C220        H225   1.084       .  S
C221        C222   1.407       .  A
C222        H226   1.082       .  S
C223        C228   1.407       .  A
C223        C232   1.406       .  A
C228        C229   1.400       .  A
C228        H233   1.083       .  S
C229        C230   1.402       .  A
C229        H234   1.083       .  S
C230        C231   1.403       .  A
C231        C232   1.400       .  A
C231        H235   1.083       .  S
C232        H236   1.083       .  S
C237        C238   1.405       .  A
C237        C242   1.402       .  A
C237        H247   1.083       .  S
C238        C239   1.404       .  A
C238        C243   1.482       .  S
C239        C240   1.395       .  A
C239        H244   1.083       .  S
C240        C241   1.405       .  A
C240        H245   1.083       .  S
C241        C242   1.407       .  A
C242        H246   1.083       .  S
C243        C248   1.406       .  A
C243        C252   1.405       .  A
C248        C249   1.400       .  A
C248        H253   1.083       .  S
C249        C250   1.402       .  A
C249        H254   1.084       .  S
C250        C251   1.402       .  A
C251        C252   1.397       .  A
C251        H255   1.083       .  S
C252        H256   1.084       .  S
C257        C258   1.406       .  A
C257        C262   1.398       .  A
C257        H267   1.083       .  S
C258        C259   1.406       .  A
C258        C263   1.486       .  S
C259        C260   1.402       .  A
C259        H264   1.083       .  S
C260        C261   1.405       .  A
C260        H265   1.083       .  S
C261        C262   1.404       .  A
C262        H266   1.083       .  S
C263        C268   1.407       .  A
C263        C272   1.406       .  A
C268        C269   1.400       .  A
C268        H273   1.084       .  S
C269        C270   1.403       .  A
C269        H274   1.083       .  S
C270        C271   1.403       .  A
C271        C272   1.399       .  A
C271        H275   1.084       .  S
C272        H276   1.082       .  S
C277        C278   1.407       .  A
C277        C282   1.397       .  A
C277        H287   1.083       .  S
C278        C279   1.407       .  A
C278        C283   1.489       .  S
C279        C280   1.403       .  A
C279        H284   1.082       .  S
C280        C281   1.403       .  A
C280        H285   1.083       .  S
C281        C282   1.402       .  A
C282        H286   1.083       .  S
C283        C288   1.407       .  A
C283        C292   1.405       .  A
C288        C289   1.405       .  A
C288        H293   1.083       .  S
C289        C290   1.407       .  A
C289        H294   1.082       .  S
C290        C291   1.405       .  A
C291        C292   1.395       .  A
C291        H295   1.084       .  S
C292        H296   1.082       .  S
C297        C298   1.406       .  A
C297        C302   1.397       .  A
C297        H307   1.083       .  S
C298        C299   1.406       .  A
C298        C303   1.485       .  S
C299        C300   1.402       .  A
C299        H304   1.083       .  S
C300        C301   1.403       .  A
C300        H305   1.083       .  S
C301        C302   1.401       .  A
C302        H306   1.083       .  S
C303        C308   1.404       .  A
C303        C312   1.406       .  A
C308        C309   1.394       .  A
C308        H313   1.083       .  S
C309        C310   1.404       .  A
C309        H314   1.083       .  S
C310        C311   1.408       .  A
C311        C312   1.405       .  A
C311        H315   1.083       .  S
C312        H316   1.083       .  S
C317        C318   1.406       .  A
C317        C322   1.396       .  A
C317        H327   1.084       .  S
C318        C319   1.407       .  A
C318        C323   1.486       .  S
C319        C320   1.402       .  A
C319        H324   1.082       .  S
C320        C321   1.402       .  A
C320        H325   1.083       .  S
C321        C322   1.402       .  A
C322        H326   1.083       .  S
C323        C328   1.406       .  A
C323        C332   1.405       .  A
C328        C329   1.403       .  A
C328        H333   1.083       .  S
C329        C330   1.407       .  A
C329        H334   1.082       .  S
C330        C331   1.405       .  A
C331        C332   1.395       .  A
C331        H335   1.083       .  S
C332        H336   1.083       .  S
C337        C338   1.407       .  A
C337        C342   1.404       .  A
C337        H347   1.083       .  S
C338        C339   1.407       .  A
C338        C343   1.490       .  S
C339        C340   1.398       .  A
C339        H344   1.083       .  S
C340        C341   1.401       .  A
C340        H345   1.083       .  S
C341        C342   1.404       .  A
C342        H346   1.083       .  S
C343        C348   1.405       .  A
C343        C352   1.408       .  A
C348        C349   1.394       .  A
C348        H353   1.083       .  S
C349        C350   1.405       .  A
C349        H354   1.083       .  S
C350        C351   1.408       .  A
C351        C352   1.407       .  A
C351        H355   1.083       .  S
C352        H356   1.083       .  S
C357        C358   1.407       .  A
C357        C362   1.398       .  A
C357        H367   1.083       .  S
C358        C359   1.407       .  A
C358        C363   1.488       .  S
C359        C360   1.402       .  A
C359        H364   1.083       .  S
C360        C361   1.403       .  A
C360        H365   1.084       .  S
C361        C362   1.401       .  A
C362        H366   1.083       .  S
C363        C368   1.405       .  A
C363        C372   1.407       .  A
C368        C369   1.395       .  A
C368        H373   1.083       .  S
C369        C370   1.404       .  A
C369        H374   1.083       .  S
C370        C371   1.407       .  A
C371        C372   1.405       .  A
C371        H375   1.083       .  S
C372        H376   1.083       .  S
C377        C378   1.406       .  A
C377        C382   1.397       .  A
C377        H387   1.083       .  S
C378        C379   1.407       .  A
C378        C383   1.486       .  S
C379        C380   1.403       .  A
C379        H384   1.083       .  S
C380        C381   1.403       .  A
C380        H385   1.083       .  S
C381        C382   1.402       .  A
C382        H386   1.083       .  S
C383        C388   1.404       .  A
C383        C392   1.406       .  A
C388        C389   1.394       .  A
C388        H393   1.083       .  S
C389        C390   1.406       .  A
C389        H394   1.083       .  S
C390        C391   1.408       .  A
C391        C392   1.405       .  A
C391        H395   1.083       .  S
C392        H396   1.083       .  S
C397        C398   1.404       .  A
C397        C402   1.392       .  A
C397        H407   1.083       .  S
C398        C399   1.407       .  A
C398        C403   1.487       .  S
C399        C400   1.406       .  A
C399        H404   1.083       .  S
C400        C401   1.408       .  A
C400        H405   1.082       .  S
C401        C402   1.405       .  A
C402        H406   1.083       .  S
C403        C408   1.407       .  A
C403        C412   1.407       .  A
C408        C409   1.402       .  A
C408        H413   1.082       .  S
C409        C410   1.404       .  A
C409        H414   1.083       .  S
C410        C411   1.401       .  A
C411        C412   1.396       .  A
C411        H415   1.083       .  S
C412        H416   1.084       .  S
C417        C418   1.407       .  A
C417        C422   1.407       .  A
C417        H427   1.084       .  S
C418        C419   1.402       .  A
C418        C423   1.485       .  S
C419        C420   1.394       .  A
C419        H424   1.083       .  S
C420        C421   1.406       .  A
C420        H425   1.084       .  S
C421        C422   1.408       .  A
C422        H426   1.082       .  S
C423        C428   1.406       .  A
C423        C432   1.405       .  A
C428        C429   1.399       .  A
C428        H433   1.084       .  S
C429        C430   1.402       .  A
C429        H434   1.083       .  S
C430        C431   1.404       .  A
C431        C432   1.402       .  A
C431        H435   1.083       .  S
C432        H436   1.083       .  S
C437        C438   1.405       .  A
C437        C442   1.395       .  A
C437        H447   1.082       .  S
C438        C439   1.407       .  A
C438        C443   1.486       .  S
C439        C440   1.403       .  A
C439        H444   1.083       .  S
C440        C441   1.405       .  A
C440        H445   1.082       .  S
C441        C442   1.405       .  A
C442        H446   1.084       .  S
C443        C448   1.407       .  A
C443        C452   1.407       .  A
C448        C449   1.400       .  A
C448        H453   1.082       .  S
C449        C450   1.402       .  A
C449        H454   1.083       .  S
C450        C451   1.401       .  A
C451        C452   1.398       .  A
C451        H455   1.083       .  S
C452        H456   1.083       .  S
C457        C458   1.410       .  A
C457        C462   1.404       .  A
C457        H467   1.083       .  S
C458        C459   1.407       .  A
C458        C463   1.493       .  S
C459        C460   1.395       .  A
C459        H464   1.082       .  S
C460        C461   1.402       .  A
C460        H465   1.084       .  S
C461        C462   1.404       .  A
C462        H466   1.083       .  S
C463        C468   1.408       .  A
C463        C472   1.409       .  A
C468        C469   1.400       .  A
C468        H473   1.082       .  S
C469        C470   1.402       .  A
C469        H474   1.083       .  S
C470        C471   1.401       .  A
C471        C472   1.399       .  A
C471        H475   1.083       .  S
C472        H476   1.083       .  S
C477        C478   1.408       .  A
C477        C482   1.403       .  A
C477        H487   1.083       .  S
C478        C479   1.406       .  A
C478        C483   1.490       .  S
C479        C480   1.395       .  A
C479        H484   1.083       .  S
C480        C481   1.404       .  A
C480        H485   1.083       .  S
C481        C482   1.406       .  A
C482        H486   1.083       .  S
C483        C488   1.408       .  A
C483        C492   1.408       .  A
C488        C489   1.401       .  A
C488        H493   1.082       .  S
C489        C490   1.402       .  A
C489        H494   1.083       .  S
C490        C491   1.402       .  A
C491        C492   1.398       .  A
C491        H495   1.083       .  S
C492        H496   1.083       .  S
C497        C498   1.406       .  A
C497        C502   1.404       .  A
C497        H507   1.083       .  S
C498        C499   1.406       .  A
C498        C503   1.489       .  S
C499        C500   1.398       .  A
C499        H504   1.083       .  S
C500        C501   1.405       .  A
C500        H505   1.083       .  S
C501        C502   1.408       .  A
C502        H506   1.083       .  S
C503        C508   1.407       .  A
C503        C512   1.407       .  A
C508        C509   1.402       .  A
C508        H513   1.082       .  S
C509        C510   1.403       .  A
C509        H514   1.083       .  S
C510        C511   1.402       .  A
C511        C512   1.398       .  A
C511        H515   1.083       .  S
C512        H516   1.083       .  S
C517        C518   1.406       .  A
C517        C522   1.400       .  A
C517        H527   1.083       .  S
C518        C519   1.405       .  A
C518        C523   1.485       .  S
C519        C520   1.400       .  A
C519        H524   1.083       .  S
C520        C521   1.405       .  A
C520        H525   1.083       .  S
C521        C522   1.403       .  A
C522        H526   1.083       .  S
C523        C528   1.405       .  A
C523        C532   1.406       .  A
C528        C529   1.397       .  A
C528        H533   1.083       .  S
C529        C530   1.404       .  A
C529        H534   1.083       .  S
C530        C531   1.407       .  A
C531        C532   1.404       .  A
C531        H535   1.083       .  S
C532        H536   1.083       .  S
C537        C538   1.406       .  A
C537        C542   1.394       .  A
C537        H547   1.083       .  S
C538        C539   1.407       .  A
C538        C543   1.490       .  S
C539        C540   1.404       .  A
C539        H544   1.083       .  S
C540        C541   1.407       .  A
C540        H545   1.083       .  S
C541        C542   1.404       .  A
C542        H546   1.083       .  S
C543        C548   1.406       .  A
C543        C552   1.409       .  A
C548        C549   1.395       .  A
C548        H553   1.083       .  S
C549        C550   1.402       .  A
C549        H554   1.083       .  S
C550        C551   1.403       .  A
C551        C552   1.404       .  A
C551        H555   1.083       .  S
C552        H556   1.082       .  S
C557        C558   1.404       .  A
C557        C562   1.394       .  A
C557        H567   1.083       .  S
C558        C559   1.406       .  A
C558        C563   1.486       .  S
C559        C560   1.406       .  A
C559        H564   1.084       .  S
C560        C561   1.410       .  A
C560        H565   1.082       .  S
C561        C562   1.405       .  A
C562        H566   1.083       .  S
C563        C568   1.407       .  A
C563        C572   1.405       .  A
C568        C569   1.404       .  A
C568        H573   1.082       .  S
C569        C570   1.405       .  A
C569        H574   1.083       .  S
C570        C571   1.403       .  A
C571        C572   1.396       .  A
C571        H575   1.083       .  S
C572        H576   1.084       .  S
C577        C578   1.406       .  A
C577        C582   1.398       .  A
C577        H587   1.083       .  S
C578        C579   1.406       .  A
C578        C583   1.485       .  S
C579        C580   1.402       .  A
C579        H584   1.083       .  S
C580        C581   1.404       .  A
C580        H585   1.083       .  S
C581        C582   1.402       .  A
C582        H586   1.084       .  S
C583        C588   1.406       .  A
C583        C592   1.404       .  A
C588        C589   1.404       .  A
C588        H593   1.083       .  S
C589        C590   1.407       .  A
C589        H594   1.083       .  S
C590        C591   1.405       .  A
C591        C592   1.395       .  A
C591        H595   1.083       .  S
C592        H596   1.083       .  S
C597        C598   1.405       .  A
C597        C602   1.396       .  A
C597        H607   1.083       .  S
C598        C599   1.407       .  A
C598        C603   1.484       .  S
C599        C600   1.403       .  A
C599        H604   1.083       .  S
C600        C601   1.404       .  A
C600        H605   1.083       .  S
C601        C602   1.402       .  A
C602        H606   1.083       .  S
C603        C608   1.404       .  A
C603        C612   1.405       .  A
C608        C609   1.395       .  A
C608        H613   1.083       .  S
C609        C610   1.406       .  A
C609        H614   1.083       .  S
C610        C611   1.408       .  A
C611        C612   1.405       .  A
C611        H615   1.083       .  S
C612        H616   1.083       .  S
C617        C618   1.406       .  A
C617        C622   1.405       .  A
C617        H627   1.083       .  S
C618        C619   1.404       .  A
C618        C623   1.484       .  S
C619        C620   1.391       .  A
C619        H624   1.083       .  S
C620        C621   1.404       .  A
C620        H625   1.083       .  S
C621        C622   1.408       .  A
C622        H626   1.083       .  S
C623        C628   1.406       .  A
C623        C632   1.406       .  A
C628        C629   1.402       .  A
C628        H633   1.082       .  S
C629        C630   1.404       .  A
C629        H634   1.084       .  S
C630        C631   1.400       .  A
C631        C632   1.394       .  A
C631        H635   1.083       .  S
C632        H636   1.084       .  S
C637        C638   1.407       .  A
C637        C642   1.399       .  A
C637        H647   1.083       .  S
C638        C639   1.408       .  A
C638        C643   1.490       .  S
C639        C640   1.401       .  A
C639        H644   1.082       .  S
C640        C641   1.402       .  A
C640        H645   1.083       .  S
C641        C642   1.402       .  A
C642        H646   1.083       .  S
C643        C648   1.407       .  A
C643        C652   1.407       .  A
C648        C649   1.403       .  A
C648        H653   1.083       .  S
C649        C650   1.405       .  A
C649        H654   1.083       .  S
C650        C651   1.405       .  A
C651        C652   1.398       .  A
C651        H655   1.083       .  S
C652        H656   1.083       .  S
C657        C658   1.406       .  A
C657        C662   1.403       .  A
C657        H667   1.083       .  S
C658        C659   1.405       .  A
C658        C663   1.485       .  S
C659        C660   1.398       .  A
C659        H664   1.083       .  S
C660        C661   1.405       .  A
C660        H665   1.084       .  S
C661        C662   1.405       .  A
C662        H666   1.082       .  S
C663        C668   1.406       .  A
C663        C672   1.406       .  A
C668        C669   1.401       .  A
C668        H673   1.083       .  S
C669        C670   1.402       .  A
C669        H674   1.083       .  S
C670        C671   1.403       .  A
C671        C672   1.399       .  A
C671        H675   1.083       .  S
C672        H676   1.083       .  S
C677        C678   1.406       .  A
C677        C682   1.403       .  A
C677        H687   1.083       .  S
C678        C679   1.405       .  A
C678        C683   1.486       .  S
C679        C680   1.394       .  A
C679        H684   1.083       .  S
C680        C681   1.405       .  A
C680        H685   1.084       .  S
C681        C682   1.407       .  A
C682        H686   1.082       .  S
C683        C688   1.406       .  A
C683        C692   1.407       .  A
C688        C689   1.395       .  A
C688        H693   1.083       .  S
C689        C690   1.402       .  A
C689        H694   1.083       .  S
C690        C691   1.402       .  A
C691        C692   1.401       .  A
C691        H695   1.083       .  S
C692        H696   1.082       .  S
