geometry optimzed in LAMMPS
_audit_creation_date              2020-12-01 
_audit_creation_method            'lammps2cif' 
_symmetry_space_group_name_H-M    'P1' 
_symmetry_Int_Tables_number       1 
_symmetry_cell_setting            triclinic 
loop_ 
_symmetry_equiv_pos_as_xyz 
  x,y,z 
_cell_length_a                    39.88116971 
_cell_length_b                    40.037196627142954 
_cell_length_c                    40.039527205552744 
_cell_angle_alpha                 89.97711263452412 
_cell_angle_beta                  89.97064562477094 
_cell_angle_gamma                 89.97339250321399 
loop_ 
_atom_site_label 
_atom_site_type_symbol 
_atom_site_fract_x 
_atom_site_fract_y 
_atom_site_fract_z 
_atom_site_charge 
O1          O  0.96473741  0.21826658  0.46409920    -0.72900
O2          O  0.03954861  0.22011685  0.53200231    -0.73900
O3          O  0.96818166  0.21926619  0.53504733    -0.62500
O4          O  0.03616891  0.21843151  0.46145302    -0.70900
O5          O  0.03541215  0.27370340  0.46014704    -0.70500
O6          O  0.96821326  0.27463080  0.53470754    -0.61700
O7          O  0.03879794  0.27546348  0.53056749    -0.74200
O8          O  0.96417710  0.27355125  0.46399579    -0.73000
Cu9        Cu  0.00214414  0.21706619  0.49813756     1.04600
Cu10       Cu  0.00160586  0.27621693  0.49723043     1.04300
C11         C  0.95237169  0.24582508  0.45353596     0.93300
C12         C  0.05086074  0.24826993  0.54207593     0.92400
C13         C  0.95770394  0.24702262  0.54684300     0.84600
C14         C  0.04698430  0.24593394  0.44940710     0.90800
C15         C  0.26837365  0.21930803  0.23997242     0.02300
C16         C  0.24294199  0.21834139  0.26429485     0.02300
C17         C  0.21768637  0.24289792  0.26445128     0.02300
C18         C  0.21711350  0.26783590  0.23949934     0.02300
C19         C  0.24220226  0.26845711  0.21458459     0.02300
C20         C  0.26800209  0.24426968  0.21511017     0.02300
C21         C  0.78192900  0.25161246  0.72753429     0.02300
C22         C  0.78266436  0.27569977  0.75338137     0.02300
C23         C  0.75840860  0.27465907  0.77919905     0.02300
C24         C  0.73308323  0.25001328  0.77880646     0.02300
C25         C  0.73167496  0.22699157  0.75221964     0.02300
C26         C  0.75626085  0.22741524  0.72692330     0.02300
O27         O  0.53286919  0.03456027  0.22641651    -0.72900
O28         O  0.46347551  0.96194787  0.22732652    -0.73900
O29         O  0.46188843  0.03248519  0.22401717    -0.62500
O30         O  0.53488175  0.96380306  0.22983348    -0.70900
O31         O  0.53285442  0.96556941  0.28506415    -0.70500
O32         O  0.46039246  0.03467792  0.27924539    -0.61700
O33         O  0.46167315  0.96415035  0.28259358    -0.74200
O34         O  0.53117729  0.03614558  0.28167334    -0.73000
Cu35       Cu  0.49836161  0.99802390  0.22496108     1.04600
Cu36       Cu  0.49644695  0.00017709  0.28403222     1.04300
C37         C  0.54296413  0.04697111  0.25405178     0.93300
C38         C  0.45123630  0.95187150  0.25505659     0.92400
C39         C  0.44968901  0.04468666  0.25089211     0.84600
C40         C  0.54571055  0.95396272  0.25825009     0.90800
C41         C  0.72148233  0.77327321  0.25649043     0.02300
C42         C  0.72002700  0.74870837  0.23106287     0.02300
C43         C  0.74399194  0.72247547  0.23035945     0.02300
C44         C  0.76897765  0.72089994  0.25550098     0.02300
C45         C  0.76997655  0.74545069  0.28089801     0.02300
C46         C  0.74630914  0.77155499  0.28150548     0.02300
O47         O  0.03544932  0.72046233  0.53552485    -0.72900
O48         O  0.96471338  0.72055950  0.46464786    -0.73900
O49         O  0.03592161  0.71988172  0.46442687    -0.62500
O50         O  0.96441089  0.72177287  0.53521328    -0.70900
O51         O  0.96476423  0.77707843  0.53425161    -0.70500
O52         O  0.03609569  0.77521353  0.46400759    -0.61700
O53         O  0.96496087  0.77585743  0.46384254    -0.74200
O54         O  0.03565986  0.77577727  0.53456125    -0.73000
Cu55       Cu  0.00012135  0.71871611  0.49994612     1.04600
Cu56       Cu  0.00043477  0.77786847  0.49911155     1.04300
C57         C  0.04677532  0.74826149  0.54634612     0.93300
C58         C  0.95325707  0.74811374  0.45329312     0.92400
C59         C  0.04749036  0.74746555  0.45313497     0.84600
C60         C  0.95312041  0.74973671  0.54583191     0.90800
C61         C  0.22596101  0.73149291  0.74891563     0.02300
C62         C  0.22612299  0.75582243  0.72342889     0.02300
C63         C  0.25114689  0.78075330  0.72289125     0.02300
C64         C  0.27620373  0.78140381  0.74784305     0.02300
C65         C  0.27633524  0.75663475  0.77305993     0.02300
C66         C  0.25122366  0.73164198  0.77361659     0.02300
O67         O  0.47123752  0.04075274  0.77803858    -0.72900
O68         O  0.54001985  0.96771861  0.77932023    -0.73900
O69         O  0.54240447  0.03842946  0.77738830    -0.62500
O70         O  0.46882083  0.96952084  0.77894767    -0.70900
O71         O  0.46927135  0.96882701  0.72364111    -0.70500
O72         O  0.54216907  0.03745542  0.72208349    -0.61700
O73         O  0.54056097  0.96685167  0.72403355    -0.74200
O74         O  0.47092255  0.03978437  0.72275775    -0.73000
Cu75       Cu  0.50559463  0.00416047  0.78034080     1.04600
Cu76       Cu  0.50568982  0.00319751  0.72122334     1.04300
C77         C  0.46011242  0.05193907  0.75030243     0.93300
C78         C  0.55143002  0.95580710  0.75201390     0.92400
C79         C  0.55404865  0.04872327  0.74942913     0.84600
C80         C  0.45757026  0.95803810  0.75131906     0.90800
O81         O  0.27868166  0.46451209  0.03153189    -0.72900
O82         O  0.28085353  0.53762130  0.96083810    -0.73900
O83         O  0.28147341  0.53582985  0.03196318    -0.62500
O84         O  0.27915959  0.46626499  0.96052774    -0.70900
O85         O  0.22365971  0.46714579  0.96073652    -0.70500
O86         O  0.22595875  0.53782930  0.03227899    -0.61700
O87         O  0.22540714  0.53837004  0.96118321    -0.74200
O88         O  0.22325524  0.46694438  0.03162988    -0.73000
Cu89       Cu  0.28198103  0.50101949  0.99621556     1.04600
Cu90       Cu  0.22269121  0.50267282  0.99644618     1.04300
C91         C  0.25039613  0.45412274  0.04267655     0.93300
C92         C  0.25315162  0.54952230  0.94976882     0.92400
C93         C  0.25422466  0.54794815  0.04347436     0.84600
C94         C  0.25122662  0.45532864  0.94943941     0.90800
O95         O  0.71387429  0.53670770  0.03527489    -0.72900
O96         O  0.71870827  0.46077969  0.96916915    -0.73900
O97         O  0.71698184  0.46599045  0.04035371    -0.62500
O98         O  0.71517556  0.53201141  0.96442790    -0.70900
O99         O  0.77063181  0.53457180  0.96558129    -0.70500
O100        O  0.77240365  0.46836317  0.04118464    -0.61700
O101        O  0.77408094  0.46394575  0.97033949    -0.74200
O102        O  0.76933067  0.53891867  0.03619561    -0.73000
Cu103      Cu  0.71422796  0.49873451  0.00222493     1.04600
Cu104      Cu  0.77347449  0.50149661  0.00332051     1.04300
C105        C  0.74095651  0.54974505  0.04632432     0.93300
C106        C  0.74737647  0.45039275  0.95918172     0.92400
C107        C  0.74495358  0.45693974  0.05309509     0.84600
C108        C  0.74264549  0.54406830  0.95321205     0.90800
C109        C  0.76882302  0.74271106  0.71891624     0.02300
C110        C  0.76851533  0.71652711  0.74274551     0.02300
C111        C  0.74360617  0.71597735  0.76797427     0.02300
C112        C  0.71922248  0.74153003  0.76922655     0.02300
C113        C  0.71930984  0.76733821  0.74530976     0.02300
C114        C  0.74400183  0.76784250  0.72017913     0.02300
O115        O  0.77510120  0.96458639  0.46941483    -0.72900
O116        O  0.77435582  0.03593820  0.53945303    -0.73900
O117        O  0.77460100  0.96527212  0.54023518    -0.62500
O118        O  0.77416814  0.03601484  0.46847187    -0.70900
O119        O  0.71869295  0.03614585  0.46939082    -0.70500
O120        O  0.71912044  0.96487985  0.53929876    -0.61700
O121        O  0.71889441  0.03563203  0.54053049    -0.74200
O122        O  0.71962329  0.96478904  0.46850815    -0.73000
Cu123      Cu  0.77646887  0.00051814  0.50432145     1.04600
Cu124      Cu  0.71717002  0.00038410  0.50435015     1.04300
C125        C  0.74756086  0.95288507  0.45812751     0.93300
C126        C  0.74683001  0.04677317  0.55162083     0.92400
C127        C  0.74669500  0.95388132  0.55114241     0.84600
C128        C  0.74623847  0.04754903  0.45776274     0.90800
C129        C  0.76673920  0.27943620  0.25974426     0.02300
C130        C  0.76619181  0.25288383  0.28309683     0.02300
C131        C  0.74035979  0.22874079  0.28170110     0.02300
C132        C  0.71556721  0.23079794  0.25663757     0.02300
C133        C  0.71650818  0.25700126  0.23299671     0.02300
C134        C  0.74177349  0.28160509  0.23481738     0.02300
O135        O  0.03602082  0.53228344  0.28404621    -0.72900
O136        O  0.96237966  0.46406614  0.28546272    -0.73900
O137        O  0.03353422  0.46163940  0.28281252    -0.62500
O138        O  0.96452260  0.53493043  0.28674937    -0.70900
O139        O  0.96297903  0.53589040  0.23147135    -0.70500
O140        O  0.03126186  0.46227051  0.22759072    -0.61700
O141        O  0.95992115  0.46520869  0.23022806    -0.74200
O142        O  0.03471940  0.53297677  0.22878781    -0.73000
Cu143      Cu  0.99917370  0.49824524  0.28665099     1.04600
Cu144      Cu  0.99714312  0.49919073  0.22759375     1.04300
C145        C  0.04752806  0.54307766  0.25628225     0.93300
C146        C  0.94943235  0.45375018  0.25816886     0.92400
C147        C  0.04344430  0.45036445  0.25462416     0.84600
C148        C  0.95243354  0.54671157  0.25963319     0.90800
C149        C  0.28030635  0.76711281  0.25550365     0.02300
C150        C  0.25489503  0.76607731  0.27998439     0.02300
C151        C  0.23043414  0.74063058  0.27919318     0.02300
C152        C  0.23170101  0.71577920  0.25406038     0.02300
C153        C  0.25700666  0.71729138  0.22922942     0.02300
C154        C  0.28122826  0.74299506  0.22992340     0.02300
O155        O  0.28183909  0.03856213  0.52784033    -0.72900
O156        O  0.27960910  0.96339223  0.46135278    -0.73900
O157        O  0.27972597  0.03411151  0.45710107    -0.62500
O158        O  0.28122014  0.96735813  0.53167328    -0.70900
O159        O  0.22571668  0.96806256  0.53282892    -0.70500
O160        O  0.22420635  0.03388734  0.45821102    -0.61700
O161        O  0.22412937  0.96314103  0.46254746    -0.74200
O162        O  0.22637655  0.03901897  0.52871396    -0.73000
Cu163      Cu  0.28253292  0.00088390  0.49447084     1.04600
Cu164      Cu  0.22320429  0.00108811  0.49566978     1.04300
C165        C  0.25437553  0.05100226  0.53867997     0.93300
C166        C  0.25173566  0.95106068  0.45162009     0.92400
C167        C  0.25166405  0.04447155  0.44570230     0.84600
C168        C  0.25354769  0.95664713  0.54367788     0.90800
C169        C  0.28209402  0.23063042  0.74134993     0.02300
C170        C  0.25782311  0.23188217  0.71572340     0.02300
C171        C  0.23360403  0.25776987  0.71558034     0.02300
C172        C  0.23453516  0.28287514  0.74052801     0.02300
C173        C  0.25878953  0.28143275  0.76627595     0.02300
C174        C  0.28249822  0.25525039  0.76663341     0.02300
O175        O  0.96613137  0.53540037  0.71436721    -0.72900
O176        O  0.04186279  0.46983780  0.71313367    -0.73900
O177        O  0.97119565  0.46507860  0.71488190    -0.62500
O178        O  0.03714617  0.54091698  0.71296579    -0.70900
O179        O  0.03811812  0.54085997  0.76825194    -0.70500
O180        O  0.97226280  0.46556920  0.77018054    -0.61700
O181        O  0.04291637  0.47013767  0.76845932    -0.74200
O182        O  0.96711471  0.53597481  0.76964491    -0.73000
Cu183      Cu  0.00410044  0.50282857  0.71190846     1.04600
Cu184      Cu  0.00519523  0.50317898  0.77103880     1.04300
C185        C  0.95432420  0.54589064  0.74209592     0.93300
C186        C  0.05410101  0.45918356  0.74061257     0.92400
C187        C  0.96109677  0.45345884  0.74285945     0.84600
C188        C  0.04809111  0.55298662  0.74044148     0.90800
O189        O  0.46391572  0.21826553  0.03320447    -0.72900
O190        O  0.53808648  0.21284230  0.96552365    -0.73900
O191        O  0.53504905  0.21764957  0.03686972    -0.62500
O192        O  0.46628575  0.21485028  0.96216994    -0.70900
O193        O  0.46760075  0.27010267  0.96057590    -0.70500
O194        O  0.53534735  0.27280191  0.03346336    -0.61700
O195        O  0.53892821  0.26808299  0.96297049    -0.74200
O196        O  0.46455326  0.27351706  0.03103876    -0.73000
Cu197      Cu  0.50079994  0.21392338  0.99949932     1.04600
Cu198      Cu  0.50166426  0.27295358  0.99681313     1.04300
C199        C  0.45262680  0.24644033  0.04311784     0.93300
C200        C  0.55050336  0.23973403  0.95361928     0.92400
C201        C  0.54585287  0.24600475  0.04711125     0.84600
C202        C  0.45566937  0.24251471  0.95002029     0.90800
O203        O  0.46443598  0.73115434  0.03442627    -0.72900
O204        O  0.53503736  0.73001342  0.96380076    -0.73900
O205        O  0.53548417  0.72849996  0.03455635    -0.62500
O206        O  0.46390688  0.73232646  0.96399070    -0.70900
O207        O  0.46587607  0.78756810  0.96395556    -0.70500
O208        O  0.53640110  0.78381164  0.03574968    -0.61700
O209        O  0.53756178  0.78523252  0.96445081    -0.74200
O210        O  0.46528604  0.78644811  0.03491727    -0.73000
Cu211      Cu  0.49969132  0.72864270  0.99908878     1.04600
Cu212      Cu  0.50141088  0.78772737  0.99974309     1.04300
C213        C  0.45345305  0.75886639  0.04586552     0.93300
C214        C  0.54784161  0.75719403  0.95305619     0.92400
C215        C  0.54680763  0.75569784  0.04685244     0.84600
C216        C  0.45323291  0.76036039  0.95298426     0.90800
C217        C  0.35935588  0.27066147  0.82028241    -0.27600
C218        C  0.35539341  0.24630710  0.84524510     0.02000
C219        C  0.32716057  0.22520566  0.84438501     0.30100
C220        C  0.30326768  0.22895712  0.81905595    -0.19400
C221        C  0.30753406  0.25297802  0.79395229    -0.28800
C222        C  0.33590412  0.27376550  0.79446678     0.44100
C223        C  0.38029969  0.24432384  0.87264256     0.05300
O224        O  0.32200823  0.20189941  0.86897699    -0.57300
H225        H  0.28135455  0.21297323  0.81887510     0.18300
O226        O  0.34071643  0.29723025  0.76996266    -0.64000
H227        H  0.38094311  0.28708572  0.82062919     0.16700
C228        C  0.39822654  0.21475097  0.87945951     0.29000
C229        C  0.42215963  0.21414716  0.90514011    -0.24900
C230        C  0.42930930  0.24307545  0.92375210    -0.24200
C231        C  0.41125100  0.27267893  0.91665249     0.40400
C232        C  0.38707511  0.27302850  0.89141785    -0.26600
O233        O  0.39326497  0.18659670  0.86059263    -0.58500
H234        H  0.43577661  0.19121560  0.90987610     0.16000
O235        O  0.41712330  0.30164166  0.93398142    -0.60000
H236        H  0.37352831  0.29597039  0.88641588     0.14500
H237        H  0.36009140  0.28913610  0.75668770     0.46400
H238        H  0.40665248  0.19011317  0.84001145     0.41700
H239        H  0.40039400  0.30174862  0.95232774     0.45200
H240        H  0.32518066  0.17991655  0.85797861     0.36700
C241        C  0.18508072  0.36058204  0.71734548    -0.27600
C242        C  0.16000931  0.36045258  0.74202142     0.02000
C243        C  0.15955273  0.33471531  0.76598169     0.30100
C244        C  0.18420012  0.30992683  0.76534197    -0.19400
C245        C  0.20914553  0.30998889  0.74070038    -0.28800
C246        C  0.20952396  0.33548541  0.71652131     0.44100
C247        C  0.13350716  0.38632480  0.74161503     0.05300
O248        O  0.13384986  0.33242647  0.78867736    -0.57300
H249        H  0.18338650  0.29003097  0.78367291     0.18300
O250        O  0.23317502  0.33560263  0.69163329    -0.64000
H251        H  0.18554465  0.38009369  0.69858781     0.16700
C252        C  0.12678556  0.40599388  0.76997746     0.29000
C253        C  0.10068482  0.42928964  0.76934867    -0.24900
C254        C  0.08134393  0.43402336  0.74040133    -0.24200
C255        C  0.08831759  0.41442449  0.71188604     0.40400
C256        C  0.11430916  0.39095755  0.71265371    -0.26600
O257        O  0.14580500  0.40288881  0.79834260    -0.58500
H258        H  0.09593669  0.44405628  0.79152116     0.16000
O259        O  0.06971075  0.41760323  0.68325808    -0.60000
H260        H  0.11910471  0.37584487  0.69071028     0.14500
H261        H  0.25164174  0.34979415  0.70006799     0.46400
H262        H  0.16421458  0.41932824  0.79572512     0.41700
H263        H  0.05126922  0.40113321  0.68556448     0.45200
H264        H  0.14427122  0.33621023  0.81085694     0.36700
C265        C  0.22690435  0.12068086  0.59791355    -0.27600
C266        C  0.25774085  0.13226072  0.61021422     0.02000
C267        C  0.28754067  0.11759443  0.59818717     0.30100
C268        C  0.28606831  0.09146485  0.57480184    -0.19400
C269        C  0.25513710  0.07941839  0.56284726    -0.28800
C270        C  0.22538703  0.09472500  0.57448685     0.44100
C271        C  0.25810603  0.15813678  0.63701173     0.05300
O272        O  0.31809168  0.12713510  0.61073978    -0.57300
H273        H  0.30934104  0.08025241  0.56647960     0.18300
O274        O  0.19450848  0.08411297  0.56383662    -0.64000
H275        H  0.20372207  0.13171458  0.60675143     0.16700
C276        C  0.27726623  0.18762497  0.63416737     0.29000
C277        C  0.27748120  0.21098646  0.66024578    -0.24900
C278        C  0.25792500  0.20606213  0.68893399    -0.24200
C279        C  0.23819357  0.17711740  0.69156985     0.40400
C280        C  0.23854743  0.15332852  0.66586596    -0.26600
O281        O  0.29528306  0.19422079  0.60575225    -0.58500
H282        H  0.29231158  0.23350070  0.65773055     0.16000
O283        O  0.21899157  0.17165007  0.71945190    -0.60000
H284        H  0.22358426  0.13090789  0.66856309     0.14500
H285        H  0.18969651  0.09748482  0.54352871     0.46400
H286        H  0.28068811  0.20897642  0.59216276     0.41700
H287        H  0.19556021  0.17588525  0.71225096     0.45200
H288        H  0.32994010  0.13812149  0.59192522     0.36700
C289        C  0.32357172  0.77007642  0.14937913    -0.27600
C290        C  0.35393579  0.75246802  0.15099122     0.02000
C291        C  0.36063226  0.73213508  0.17892778     0.30100
C292        C  0.33673966  0.72900788  0.20437764    -0.19400
C293        C  0.30618575  0.74620964  0.20249407    -0.28800
C294        C  0.29980525  0.76715984  0.17501632     0.44100
C295        C  0.37819455  0.75471328  0.12308688     0.05300
O296        O  0.39099412  0.71629452  0.18206009    -0.57300
H297        H  0.34210812  0.71325043  0.22571049     0.18300
O298        O  0.27007862  0.78426491  0.17280567    -0.64000
H299        H  0.31814313  0.78579976  0.12802340     0.16700
C300        C  0.38722610  0.72597553  0.10503878     0.29000
C301        C  0.41150877  0.72790672  0.08000151    -0.24900
C302        C  0.42694401  0.75844904  0.07193843    -0.24200
C303        C  0.41692073  0.78756868  0.08926625     0.40400
C304        C  0.39260172  0.78551933  0.11452881    -0.26600
O305        O  0.37241162  0.69577887  0.11168565    -0.58500
H306        H  0.41820002  0.70523583  0.06682655     0.16000
O307        O  0.43077065  0.81806988  0.08199899    -0.60000
H308        H  0.38549275  0.80791482  0.12797830     0.14500
H309        H  0.27596253  0.80808605  0.17619731     0.46400
H310        H  0.35104834  0.69601733  0.09901577     0.41700
H311        H  0.44994935  0.82043271  0.09759618     0.45200
H312        H  0.38642577  0.69238000  0.17751453     0.36700
C313        C  0.26791926  0.81363777  0.36090018    -0.27600
C314        C  0.25031284  0.84340058  0.35447593     0.02000
C315        C  0.23428646  0.84749422  0.32335101     0.30100
C316        C  0.23579061  0.82198363  0.29952788    -0.19400
C317        C  0.25335017  0.79239571  0.30605551    -0.28800
C318        C  0.26946710  0.78822457  0.33694072     0.44100
C319        C  0.25010811  0.87038198  0.37994080     0.05300
O320        O  0.21880323  0.87703975  0.31530596    -0.57300
H321        H  0.22349942  0.82543186  0.27565273     0.18300
O322        O  0.28733867  0.75972337  0.34358467    -0.64000
H323        H  0.28051468  0.81009861  0.38460815     0.16700
C324        C  0.22000888  0.88527851  0.39089937     0.29000
C325        C  0.22088178  0.91154943  0.41399447    -0.24900
C326        C  0.25144957  0.92275101  0.42751467    -0.24200
C327        C  0.28137144  0.90645439  0.41781202     0.40400
C328        C  0.28051079  0.88087679  0.39403194    -0.26600
O329        O  0.18953543  0.87403153  0.37968696    -0.58500
H330        H  0.19744685  0.92300216  0.42149183     0.16000
O331        O  0.31155610  0.91450456  0.43209602    -0.60000
H332        H  0.30384378  0.86922449  0.38647526     0.14500
H333        H  0.27218823  0.74567653  0.35729577     0.46400
H334        H  0.18559326  0.85269459  0.39166639     0.41700
H335        H  0.32240369  0.93015283  0.41620987     0.45200
H336        H  0.19462442  0.87157901  0.31298581     0.36700
C337        C  0.18999925  0.63034348  0.25880373    -0.27600
C338        C  0.15635843  0.63869661  0.25312104     0.02000
C339        C  0.14757554  0.67215002  0.24704372     0.30100
C340        C  0.17230184  0.69692217  0.24696636    -0.19400
C341        C  0.20596723  0.68879904  0.25320702    -0.28800
C342        C  0.21476394  0.65519731  0.25907172     0.44100
C343        C  0.13019853  0.61264734  0.25413342     0.05300
O344        O  0.11474075  0.68089860  0.24184046    -0.57300
H345        H  0.16520026  0.72259913  0.24218151     0.18300
O346        O  0.24747106  0.64651810  0.26515366    -0.64000
H347        H  0.19697306  0.60459848  0.26343326     0.16700
C348        C  0.11999287  0.59625324  0.22485637     0.29000
C349        C  0.09300936  0.57384125  0.22580229    -0.24900
C350        C  0.07610682  0.56702607  0.25595254    -0.24200
C351        C  0.08719797  0.58302066  0.28547069     0.40400
C352        C  0.11398103  0.60561190  0.28432148    -0.26600
O353        O  0.13577748  0.60257788  0.19507676    -0.58500
H354        H  0.08538639  0.56173116  0.20284413     0.16000
O355        O  0.07196171  0.57707203  0.31560195    -0.60000
H356        H  0.12176685  0.61815916  0.30701022     0.14500
H357        H  0.24882072  0.64239304  0.28953235     0.46400
H358        H  0.15494917  0.58681724  0.19436309     0.41700
H359        H  0.05419191  0.59431347  0.31747519     0.45200
H360        H  0.11110500  0.67819864  0.21748308     0.36700
C361        C  0.63775902  0.27200595  0.18209367    -0.27600
C362        C  0.64474435  0.25337104  0.15316368     0.02000
C363        C  0.67621594  0.23772548  0.14989558     0.30100
C364        C  0.69973613  0.24011192  0.17570923    -0.19400
C365        C  0.69208995  0.25739870  0.20513064    -0.28800
C366        C  0.66114043  0.27385437  0.20813319     0.44100
C367        C  0.61926236  0.25108769  0.12631879     0.05300
O368        O  0.68459002  0.22119123  0.12105370    -0.57300
H369        H  0.72395320  0.22816609  0.17292922     0.18300
O370        O  0.65377967  0.29199655  0.23624914    -0.64000
H371        H  0.61387633  0.28464875  0.18471467     0.16700
C372        C  0.60691217  0.22003341  0.11532980     0.29000
C373        C  0.58285628  0.21871630  0.08978394    -0.24900
C374        C  0.57072064  0.24809294  0.07478175    -0.24200
C375        C  0.58263173  0.27924362  0.08664049     0.40400
C376        C  0.60674076  0.28044763  0.11197380    -0.26600
O377        O  0.61705714  0.19100925  0.13055881    -0.58500
H378        H  0.57369104  0.19454789  0.08178701     0.16000
O379        O  0.57125167  0.30880320  0.07353101    -0.60000
H380        H  0.61585816  0.30452087  0.12037646     0.14500
H381        H  0.63810890  0.27789123  0.24927483     0.46400
H382        H  0.62860852  0.17785950  0.11300231     0.41700
H383        H  0.55262182  0.31580060  0.08839086     0.45200
H384        H  0.68683466  0.19735985  0.12746529     0.36700
C385        C  0.81706365  0.35664347  0.28201861    -0.27600
C386        C  0.84400199  0.35419918  0.25954873     0.02000
C387        C  0.84602221  0.32649696  0.23801183     0.30100
C388        C  0.82084770  0.30218184  0.23851910    -0.19400
C389        C  0.79381673  0.30479792  0.26074510    -0.28800
C390        C  0.79212060  0.33202708  0.28281127     0.44100
C391        C  0.87025673  0.38030682  0.25919180     0.05300
O392        O  0.87319494  0.32239770  0.21738316    -0.57300
H393        H  0.82239512  0.28117892  0.22153479     0.18300
O394        O  0.76563581  0.33524234  0.30443063    -0.64000
H395        H  0.81528022  0.37781398  0.29877357     0.16700
C396        C  0.87653316  0.39944042  0.23035648     0.29000
C397        C  0.90236069  0.42314899  0.23029336    -0.24900
C398        C  0.92214454  0.42845475  0.25890317    -0.24200
C399        C  0.91549891  0.40931295  0.28785136     0.40400
C400        C  0.88957060  0.38575882  0.28787058    -0.26600
O401        O  0.85750384  0.39520371  0.20213679    -0.58500
H402        H  0.90671684  0.43758320  0.20781739     0.16000
O403        O  0.93446466  0.41294744  0.31617326    -0.60000
H404        H  0.88499529  0.37111756  0.31018451     0.14500
H405        H  0.77404019  0.32696910  0.32620476     0.46400
H406        H  0.83754823  0.40960802  0.20540837     0.41700
H407        H  0.95282275  0.39634505  0.31394262     0.45200
H408        H  0.86492686  0.32754597  0.19459995     0.36700
C409        C  0.75851364  0.14684446  0.32618333    -0.27600
C410        C  0.74015755  0.15079807  0.35587787     0.02000
C411        C  0.72132793  0.18022134  0.36066092     0.30100
C412        C  0.72095855  0.20497212  0.33590584    -0.19400
C413        C  0.73949091  0.20105250  0.30644252    -0.28800
C414        C  0.75813817  0.17166591  0.30145774     0.44100
C415        C  0.74156221  0.12441238  0.38195006     0.05300
O416        O  0.70505067  0.18587898  0.39033606    -0.57300
H417        H  0.70686514  0.22773733  0.34006750     0.18300
O418        O  0.77680408  0.16756808  0.27295943    -0.64000
H419        H  0.77320429  0.12442679  0.32217101     0.16700
C420        C  0.71214034  0.10945726  0.39437646     0.29000
C421        C  0.71415181  0.08472993  0.41900685    -0.24900
C422        C  0.74531650  0.07413892  0.43172074    -0.24200
C423        C  0.77480009  0.08921641  0.41918713     0.40400
C424        C  0.77272523  0.11392004  0.39443263    -0.26600
O425        O  0.68122220  0.11863010  0.38247986    -0.58500
H426        H  0.69106022  0.07370875  0.42803228     0.16000
O427        O  0.80574903  0.08080239  0.43150694    -0.60000
H428        H  0.79558989  0.12532305  0.38526571     0.14500
H429        H  0.76689651  0.14809639  0.26127127     0.46400
H430        H  0.67810734  0.10561611  0.36167567     0.41700
H431        H  0.81376878  0.06235345  0.41703393     0.45200
H432        H  0.68083135  0.18658308  0.38475558     0.36700
C433        C  0.61392827  0.72425966  0.89308286    -0.27600
C434        C  0.62367556  0.75336661  0.87642485     0.02000
C435        C  0.60932783  0.78415523  0.88556289     0.30100
C436        C  0.58486616  0.78528175  0.91075824    -0.19400
C437        C  0.57462010  0.75592415  0.92725882    -0.28800
C438        C  0.58999330  0.72531843  0.91846823     0.44100
C439        C  0.64829139  0.75069602  0.84903326     0.05300
O440        O  0.61781513  0.81288137  0.86887095    -0.57300
H441        H  0.57355418  0.80908949  0.91696366     0.18300
O442        O  0.58181287  0.69608223  0.93434044    -0.64000
H443        H  0.62509829  0.70049457  0.88639779     0.16700
C444        C  0.67999208  0.76589337  0.85137599     0.29000
C445        C  0.70311914  0.76215717  0.82541883    -0.24900
C446        C  0.69509562  0.74309566  0.79720360    -0.24200
C447        C  0.66375446  0.72730754  0.79507636     0.40400
C448        C  0.64059499  0.73101996  0.82104866    -0.26600
O449        O  0.68871832  0.78397219  0.87911583    -0.58500
H450        H  0.72732187  0.77431096  0.82714746     0.16000
O451        O  0.65588418  0.70787102  0.76798579    -0.60000
H452        H  0.61648330  0.71867793  0.81930506     0.14500
H453        H  0.59658061  0.69520703  0.95425335     0.46400
H454        H  0.70154450  0.76824042  0.89335446     0.41700
H455        H  0.63935880  0.72103516  0.75496702     0.45200
H456        H  0.63339428  0.82490429  0.88396562     0.36700
C457        C  0.81399527  0.63337902  0.73625856    -0.27600
C458        C  0.84689085  0.64277562  0.74410770     0.02000
C459        C  0.85414874  0.67642271  0.75107668     0.30100
C460        C  0.82845234  0.70023340  0.75023913    -0.19400
C461        C  0.79544046  0.69084646  0.74258480    -0.28800
C462        C  0.78829455  0.65719138  0.73533486     0.44100
C463        C  0.87362110  0.61733537  0.74399581     0.05300
O464        O  0.88645878  0.68630219  0.75750574    -0.57300
H465        H  0.83423463  0.72608898  0.75574619     0.18300
O466        O  0.75620315  0.64744797  0.72771795    -0.64000
H467        H  0.80827218  0.60749471  0.73080263     0.16700
C468        C  0.88949671  0.60755105  0.77375031     0.29000
C469        C  0.91543785  0.58403548  0.77283517    -0.24900
C470        C  0.92587663  0.56981698  0.74239900    -0.24200
C471        C  0.90902731  0.57904908  0.71270901     0.40400
C472        C  0.88308957  0.60254372  0.71376891    -0.26600
O473        O  0.87986206  0.62087985  0.80381702    -0.58500
H474        H  0.92754437  0.57714407  0.79604966     0.16000
O475        O  0.91724322  0.56499320  0.68255864    -0.60000
H476        H  0.87057140  0.60960010  0.69080197     0.14500
H477        H  0.75703107  0.63906318  0.70442857     0.46400
H478        H  0.86024195  0.60739682  0.81098129     0.41700
H479        H  0.93294224  0.58100508  0.67193209     0.45200
H480        H  0.88666859  0.69307715  0.78134266     0.36700
C481        C  0.71616256  0.89096504  0.61568479    -0.27600
C482        C  0.74649606  0.87775720  0.62730278     0.02000
C483        C  0.77690696  0.88984042  0.61427854     0.30100
C484        C  0.77663604  0.91464205  0.58959274    -0.19400
C485        C  0.74623684  0.92785769  0.57759926    -0.28800
C486        C  0.71576850  0.91569925  0.59104222     0.44100
C487        C  0.74588208  0.84994004  0.65150695     0.05300
O488        O  0.80687329  0.87622728  0.62421402    -0.57300
H489        H  0.80035813  0.92320909  0.57957822     0.18300
O490        O  0.68538719  0.92787482  0.58055677    -0.64000
H491        H  0.69259603  0.88180966  0.62560418     0.16700
C492        C  0.76138656  0.85270178  0.68295954     0.29000
C493        C  0.76033953  0.82577311  0.70519060    -0.24900
C494        C  0.74467930  0.79583373  0.69610076    -0.24200
C495        C  0.72919303  0.79301111  0.66476298     0.40400
C496        C  0.72946068  0.82017273  0.64283302    -0.26600
O497        O  0.77626816  0.88205661  0.69260896    -0.58500
H498        H  0.77187510  0.82814802  0.72957150     0.16000
O499        O  0.71331332  0.76403110  0.65569141    -0.60000
H500        H  0.71727877  0.81785711  0.61875895     0.14500
H501        H  0.67689490  0.91119531  0.56433311     0.46400
H502        H  0.80029687  0.87665900  0.69598297     0.41700
H503        H  0.72925724  0.75236181  0.64067246     0.45200
H504        H  0.81791463  0.89373820  0.63785997     0.36700
C505        C  0.77494343  0.39799092  0.12193297    -0.27600
C506        C  0.74445964  0.38651906  0.13510521     0.02000
C507        C  0.71422746  0.39939538  0.12226848     0.30100
C508        C  0.71480965  0.42235643  0.09584290    -0.19400
C509        C  0.74532932  0.43323315  0.08184237    -0.28800
C510        C  0.77562440  0.42125335  0.09577705     0.44100
C511        C  0.74448339  0.36002739  0.16110285     0.05300
O512        O  0.68391075  0.38936675  0.13501068    -0.57300
H513        H  0.69115751  0.43144525  0.08613256     0.18300
O514        O  0.80611519  0.43141750  0.08362165    -0.64000
H515        H  0.79842532  0.38874986  0.13193607     0.16700
C516        C  0.76018890  0.32906260  0.15507217     0.29000
C517        C  0.75902598  0.30379974  0.17922833    -0.24900
C518        C  0.74278063  0.30905887  0.20979244    -0.24200
C519        C  0.72768445  0.34015486  0.21625667     0.40400
C520        C  0.72831177  0.36531325  0.19183198    -0.26600
O521        O  0.77542904  0.32278148  0.12500203    -0.58500
H522        H  0.77074267  0.27992924  0.17407972     0.16000
O523        O  0.71165133  0.34578840  0.24604815    -0.60000
H524        H  0.71630443  0.38904748  0.19694665     0.14500
H525        H  0.81404941  0.44869746  0.09951146     0.46400
H526        H  0.79983148  0.32419648  0.12952307     0.41700
H527        H  0.72555877  0.36254352  0.25787198     0.45200
H528        H  0.67972217  0.36700449  0.12519875     0.36700
C529        C  0.76656846  0.66827317  0.84672543    -0.27600
C530        C  0.74379575  0.64152206  0.84575489     0.02000
C531        C  0.72122518  0.63914831  0.81878736     0.30100
C532        C  0.72152079  0.66334783  0.79352463    -0.19400
C533        C  0.74425138  0.69003649  0.79458901    -0.28800
C534        C  0.76675704  0.69251179  0.82148022     0.44100
C535        C  0.74352214  0.61650699  0.87316631     0.05300
O536        O  0.69889786  0.61318046  0.81684508    -0.57300
H537        H  0.70411634  0.66117270  0.77289350     0.18300
O538        O  0.78885583  0.71867513  0.82332879    -0.64000
H539        H  0.78383670  0.67070975  0.86745360     0.16700
C540        C  0.77267164  0.59856660  0.88157819     0.29000
C541        C  0.77193713  0.57517370  0.90760846    -0.24900
C542        C  0.74235253  0.56914524  0.92577540    -0.24200
C543        C  0.71319834  0.58743698  0.91747065     0.40400
C544        C  0.71395819  0.61074378  0.89131898    -0.26600
O545        O  0.80159922  0.60264491  0.86346542    -0.58500
H546        H  0.79461608  0.56139523  0.91327531     0.16000
O547        O  0.68387107  0.58300172  0.93482042    -0.60000
H548        H  0.69142755  0.62469253  0.88543081     0.14500
H549        H  0.77801080  0.73518921  0.83831066     0.46400
H550        H  0.81668522  0.61598405  0.87793835     0.41700
H551        H  0.68405535  0.60040958  0.95243785     0.45200
H552        H  0.71043011  0.59580474  0.80344639     0.36700
C553        C  0.26755761  0.36286467  0.81439436    -0.27600
C554        C  0.25437004  0.35410278  0.84572179     0.02000
C555        C  0.24280454  0.32124154  0.85084862     0.30100
C556        C  0.24485249  0.29773242  0.82497780    -0.19400
C557        C  0.25828146  0.30652301  0.79378063    -0.28800
C558        C  0.26981063  0.33930772  0.78862120     0.44100
C559        C  0.25348177  0.37936833  0.87287890     0.05300
O560        O  0.22957607  0.31186172  0.88105329    -0.57300
H561        H  0.23567070  0.27260461  0.82912166     0.18300
O562        O  0.28274232  0.34859912  0.75826091    -0.64000
H563        H  0.27608265  0.38814793  0.80984825     0.16700
C564        C  0.28292344  0.39605682  0.88267820     0.29000
C565        C  0.28173809  0.42030059  0.90779558    -0.24900
C566        C  0.25130399  0.42891052  0.92334348    -0.24200
C567        C  0.22180489  0.41190889  0.91370530     0.40400
C568        C  0.22308295  0.38742535  0.88866577    -0.26600
O569        O  0.31321131  0.38811152  0.86846807    -0.58500
H570        H  0.30486216  0.43260581  0.91484155     0.16000
O571        O  0.19154152  0.41905337  0.92833510    -0.60000
H572        H  0.20015423  0.37496810  0.88124714     0.14500
H573        H  0.30671465  0.35376399  0.76240307     0.46400
H574        H  0.31838437  0.40685820  0.85309775     0.41700
H575        H  0.19028682  0.40426305  0.94817848     0.45200
H576        H  0.24840395  0.30141465  0.89335777     0.36700
C577        C  0.23420534  0.67266536  0.14907130    -0.27600
C578        C  0.25752330  0.64639709  0.14893716     0.02000
C579        C  0.28089890  0.64372277  0.17512560     0.30100
C580        C  0.28088527  0.66728197  0.20084586    -0.19400
C581        C  0.25714712  0.69309515  0.20128270    -0.28800
C582        C  0.23381497  0.69586939  0.17514702     0.44100
C583        C  0.25664254  0.62138175  0.12186420     0.05300
O584        O  0.30318736  0.61765492  0.17626153    -0.57300
H585        H  0.29887869  0.66496844  0.22097471     0.18300
O586        O  0.21024098  0.72082763  0.17528226    -0.64000
H587        H  0.21619486  0.67508135  0.12896727     0.16700
C588        C  0.22754789  0.60247073  0.11599721     0.29000
C589        C  0.22701607  0.57889400  0.09024000    -0.24900
C590        C  0.25539958  0.57358079  0.07012188    -0.24200
C591        C  0.28465316  0.59256589  0.07620890     0.40400
C592        C  0.28506578  0.61621355  0.10191974    -0.26600
O593        O  0.20011000  0.60572110  0.13642980    -0.58500
H594        H  0.20448231  0.56428247  0.08645381     0.16000
O595        O  0.31298534  0.58834320  0.05723176    -0.60000
H596        H  0.30759177  0.63073385  0.10619602     0.14500
H597        H  0.21887301  0.73797692  0.15962443     0.46400
H598        H  0.18407930  0.61984039  0.12383041     0.41700
H599        H  0.30984354  0.60307476  0.03755688     0.45200
H600        H  0.29091333  0.59924354  0.18746570     0.36700
C601        C  0.40049073  0.12138797  0.77779221    -0.27600
C602        C  0.38368912  0.12821312  0.74784628     0.02000
C603        C  0.39234917  0.11052117  0.71881920     0.30100
C604        C  0.41740542  0.08609226  0.71995432    -0.19400
C605        C  0.43424656  0.07874376  0.74994128    -0.28800
C606        C  0.42564638  0.09692516  0.77904942     0.44100
C607        C  0.35752347  0.15427612  0.74668008     0.05300
O608        O  0.37644614  0.11701882  0.68914720    -0.57300
H609        H  0.42340245  0.07264459  0.69725629     0.18300
O610        O  0.44227040  0.09180167  0.80859443    -0.64000
H611        H  0.39426512  0.13528324  0.80017945     0.16700
C612        C  0.32555326  0.14870709  0.76049999     0.29000
C613        C  0.30066714  0.17324071  0.75760410    -0.24900
C614        C  0.30766308  0.20371102  0.74174886    -0.24200
C615        C  0.33969384  0.20937023  0.72829336     0.40400
C616        C  0.36436819  0.18464891  0.73066429    -0.26600
O617        O  0.31827431  0.11916563  0.77625581    -0.58500
H618        H  0.27610355  0.16883326  0.76830003     0.16000
O619        O  0.34722617  0.23932455  0.71348994    -0.60000
H620        H  0.38897415  0.18921176  0.72013249     0.14500
H621        H  0.42778986  0.07639493  0.82157319     0.46400
H622        H  0.32568106  0.12233320  0.79969427     0.41700
H623        H  0.34583907  0.23511274  0.68913435     0.45200
H624        H  0.35586273  0.10313913  0.68956360     0.36700
C625        C  0.60992390  0.88646710  0.78179508    -0.27600
C626        C  0.62603688  0.87773635  0.75194032     0.02000
C627        C  0.61853204  0.89548010  0.72255481     0.30100
C628        C  0.59430684  0.92074452  0.72299155    -0.19400
C629        C  0.57746840  0.92922119  0.75267921    -0.28800
C630        C  0.58594466  0.91208036  0.78243197     0.44100
C631        C  0.64969353  0.84926191  0.75120315     0.05300
O632        O  0.63468264  0.88818614  0.69318590    -0.57300
H633        H  0.58878427  0.93379015  0.69993370     0.18300
O634        O  0.57010578  0.91917799  0.81201455    -0.64000
H635        H  0.61547747  0.87291830  0.80457271     0.16700
C636        C  0.67947983  0.84961549  0.77002920     0.29000
C637        C  0.70176308  0.82265310  0.76812080    -0.24900
C638        C  0.69465414  0.79511218  0.74767349    -0.24200
C639        C  0.66478890  0.79457454  0.72907065     0.40400
C640        C  0.64247424  0.82154766  0.73100961    -0.26600
O641        O  0.68721107  0.87638146  0.78994194    -0.58500
H642        H  0.72485442  0.82332509  0.78234490     0.16000
O643        O  0.65707304  0.76751829  0.70949768    -0.60000
H644        H  0.61944383  0.82087285  0.71667522     0.14500
H645        H  0.58632216  0.93281702  0.82491221     0.46400
H646        H  0.70117995  0.89120197  0.77577454     0.41700
H647        H  0.65542181  0.77620448  0.68634464     0.45200
H648        H  0.65656300  0.89986233  0.69461492     0.36700
C649        C  0.35797962  0.74408332  0.82016726    -0.27600
C650        C  0.35029515  0.75903917  0.85095658     0.02000
C651        C  0.31846613  0.77333841  0.85584107     0.30100
C652        C  0.29474126  0.77244390  0.83020136    -0.19400
C653        C  0.30228407  0.75738646  0.79954530    -0.28800
C654        C  0.33417774  0.74327578  0.79444332     0.44100
C655        C  0.37563047  0.75958857  0.87786302     0.05300
O656        O  0.31027937  0.78807328  0.88565537    -0.57300
H657        H  0.27036746  0.78366333  0.83414854     0.18300
O658        O  0.34238271  0.72918797  0.76430832    -0.64000
H659        H  0.38252858  0.73321914  0.81607132     0.16700
C660        C  0.38574868  0.72987942  0.89353226     0.29000
C661        C  0.41067636  0.73063256  0.91810323    -0.24900
C662        C  0.42599552  0.76088380  0.92755239    -0.24200
C663        C  0.41477312  0.79086696  0.91253451     0.40400
C664        C  0.38991604  0.78997000  0.88780155    -0.26600
O665        O  0.37065239  0.70012125  0.88567239    -0.58500
H666        H  0.41802004  0.70732070  0.92972956     0.16000
O667        O  0.42831250  0.82112046  0.92119706    -0.60000
H668        H  0.38200028  0.81304992  0.87604473     0.14500
H669        H  0.33875982  0.70485388  0.76730640     0.46400
H670        H  0.38559598  0.68949095  0.86899252     0.41700
H671        H  0.41333233  0.83004090  0.93885863     0.45200
H672        H  0.30313009  0.76943671  0.90036081     0.36700
C673        C  0.10468067  0.62466950  0.71240898    -0.27600
C674        C  0.12101033  0.63250670  0.74238705     0.02000
C675        C  0.11302234  0.61468654  0.77152681     0.30100
C676        C  0.08903387  0.58926670  0.77051237    -0.19400
C677        C  0.07273229  0.58086603  0.74049409    -0.28800
C678        C  0.08066807  0.59908556  0.71126001     0.44100
C679        C  0.14748686  0.65827191  0.74312822     0.05300
O680        O  0.12892606  0.62166136  0.80108582    -0.57300
H681        H  0.08362515  0.57573542  0.79331794     0.18300
O682        O  0.06474059  0.59263666  0.68160995    -0.64000
H683        H  0.11069368  0.63834569  0.68983188     0.16700
C684        C  0.17931166  0.65166436  0.72952226     0.29000
C685        C  0.20508471  0.67512636  0.73285076    -0.24900
C686        C  0.19928582  0.70561968  0.74902521    -0.24200
C687        C  0.16721697  0.71262080  0.76193918     0.40400
C688        C  0.14159892  0.68881843  0.75923745    -0.26600
O689        O  0.18530209  0.62243675  0.71270541    -0.58500
H690        H  0.22945808  0.66991932  0.72208081     0.16000
O691        O  0.16053318  0.74303809  0.77621765    -0.60000
H692        H  0.11706904  0.69422722  0.76955893     0.14500
H693        H  0.07953232  0.57665797  0.66970607     0.46400
H694        H  0.19528952  0.60717888  0.72949960     0.41700
H695        H  0.15860672  0.73864995  0.80050011     0.45200
H696        H  0.15000767  0.60850419  0.80047318     0.36700
C697        C  0.23956037  0.86247339  0.67678373    -0.27600
C698        C  0.24998600  0.85372863  0.64454216     0.02000
C699        C  0.26064932  0.82087689  0.63796015     0.30100
C700        C  0.26118529  0.79732035  0.66373401    -0.19400
C701        C  0.25094047  0.80618623  0.69605319    -0.28800
C702        C  0.23973212  0.83884526  0.70247367     0.44100
C703        C  0.25065445  0.87947857  0.61829731     0.05300
O704        O  0.27063990  0.81166570  0.60649380    -0.57300
H705        H  0.26954463  0.77208727  0.65857829     0.18300
O706        O  0.22951119  0.84786920  0.73392939    -0.64000
H707        H  0.23158238  0.88779177  0.68211443     0.16700
C708        C  0.22107653  0.89557701  0.60814088     0.29000
C709        C  0.22248121  0.92068264  0.58395645    -0.24900
C710        C  0.25327502  0.93043610  0.56979605    -0.24200
C711        C  0.28292373  0.91407756  0.58012196     0.40400
C712        C  0.28138260  0.88884875  0.60420823    -0.26600
O713        O  0.19059536  0.88619199  0.62097992    -0.58500
H714        H  0.19927570  0.93249175  0.57631064     0.16000
O715        O  0.31357933  0.92255321  0.56712060    -0.60000
H716        H  0.30432827  0.87673771  0.61220123     0.14500
H717        H  0.20555830  0.85438042  0.73177543     0.46400
H718        H  0.18559891  0.90271592  0.63876095     0.41700
H719        H  0.31631173  0.90826271  0.54707343     0.45200
H720        H  0.24964091  0.80646289  0.59435000     0.36700
C721        C  0.23468456  0.68349188  0.85383090    -0.27600
C722        C  0.25325676  0.65414961  0.84843557     0.02000
C723        C  0.27089852  0.65036245  0.81815807     0.30100
C724        C  0.26990122  0.67570876  0.79397176    -0.19400
C725        C  0.25178342  0.70516518  0.79967268    -0.28800
C726        C  0.23416690  0.70907483  0.82983752     0.44100
C727        C  0.25355525  0.62748992  0.87435167     0.05300
O728        O  0.28790724  0.62134135  0.81144149    -0.57300
H729        H  0.28314871  0.67231317  0.77058888     0.18300
O730        O  0.21590730  0.73754919  0.83565142    -0.64000
H731        H  0.22083558  0.68671521  0.87689235     0.16700
C732        C  0.28363252  0.61703610  0.88957512     0.29000
C733        C  0.28325494  0.59158197  0.91374457    -0.24900
C734        C  0.25299824  0.57638547  0.92371018    -0.24200
C735        C  0.22280403  0.58747969  0.90868797     0.40400
C736        C  0.22334314  0.61266104  0.88431082    -0.26600
O737        O  0.31353897  0.63180714  0.88130933    -0.58500
H738        H  0.30676238  0.58399241  0.92495974     0.16000
O739        O  0.19256509  0.57343679  0.91698974    -0.60000
H740        H  0.19998216  0.62048475  0.87290058     0.14500
H741        H  0.22655635  0.74841178  0.85519619     0.46400
H742        H  0.31351980  0.65360583  0.89312874     0.41700
H743        H  0.18214653  0.58923907  0.93299758     0.45200
H744        H  0.31202108  0.62732727  0.81249757     0.36700
C745        C  0.32643337  0.85941734  0.76881968    -0.27600
C746        C  0.35392229  0.85638796  0.74716676     0.02000
C747        C  0.35537929  0.82902384  0.72506860     0.30100
C748        C  0.32990149  0.80484296  0.72543778    -0.19400
C749        C  0.30261609  0.80775186  0.74738092    -0.28800
C750        C  0.30082048  0.83541435  0.76899126     0.44100
C751        C  0.38075320  0.88207682  0.74799590     0.05300
O752        O  0.38224245  0.82508110  0.70401030    -0.57300
H753        H  0.33151663  0.78362652  0.70872298     0.18300
O754        O  0.27346148  0.83968407  0.78938378    -0.64000
H755        H  0.32469866  0.88066808  0.78548467     0.16700
C756        C  0.38794062  0.90172587  0.71975226     0.29000
C757        C  0.41296485  0.92619025  0.72125171    -0.24900
C758        C  0.43096103  0.93202689  0.75091205    -0.24200
C759        C  0.42348758  0.91246279  0.77932741     0.40400
C760        C  0.39850681  0.88786138  0.77771515    -0.26600
O761        O  0.37022464  0.89763860  0.69069105    -0.58500
H762        H  0.41794352  0.94097735  0.69913489     0.16000
O763        O  0.44047567  0.91694386  0.80876115    -0.60000
H764        H  0.39311443  0.87302929  0.79971763     0.14500
H765        H  0.28237084  0.84110527  0.81247850     0.46400
H766        H  0.34995411  0.91173847  0.69330889     0.41700
H767        H  0.46063631  0.90253260  0.80697195     0.45200
H768        H  0.37355008  0.83012506  0.68135367     0.36700
C769        C  0.17819448  0.72086387  0.35598839    -0.27600
C770        C  0.15253143  0.74472362  0.35338360     0.02000
C771        C  0.15236466  0.76693125  0.32612977     0.30100
C772        C  0.17741557  0.76479155  0.30178702    -0.19400
C773        C  0.20306568  0.74092150  0.30439064    -0.28800
C774        C  0.20331392  0.71877133  0.33161302     0.44100
C775        C  0.12552716  0.74556193  0.37870278     0.05300
O776        O  0.12775588  0.79066897  0.32298401    -0.57300
H777        H  0.17694055  0.78186373  0.28079867     0.18300
O778        O  0.22851198  0.69569570  0.33497736    -0.64000
H779        H  0.17878455  0.70388112  0.37705323     0.16700
C780        C  0.10473130  0.71764067  0.38365121     0.29000
C781        C  0.07939488  0.71860150  0.40784506    -0.24900
C782        C  0.07427326  0.74729861  0.42740777    -0.24200
C783        C  0.09499846  0.77544638  0.42207746     0.40400
C784        C  0.12044432  0.77433873  0.39798056    -0.26600
O785        O  0.10820589  0.68977676  0.36400908    -0.58500
H786        H  0.06350180  0.69689647  0.41103835     0.16000
O787        O  0.09146381  0.80374793  0.44105298    -0.60000
H788        H  0.13646942  0.79592454  0.39452088     0.14500
H789        H  0.21758307  0.67367185  0.33188973     0.46400
H790        H  0.12088209  0.67356015  0.37781088     0.41700
H791        H  0.07704178  0.81885039  0.42761301     0.45200
H792        H  0.10830124  0.77876107  0.31320238     0.36700
C793        C  0.82136923  0.72425200  0.64197443    -0.27600
C794        C  0.84692536  0.74821942  0.64469710     0.02000
C795        C  0.84620134  0.77096629  0.67156550     0.30100
C796        C  0.82074152  0.76888201  0.69553891    -0.19400
C797        C  0.79560936  0.74446588  0.69307879    -0.28800
C798        C  0.79594616  0.72215906  0.66601920     0.44100
C799        C  0.87442233  0.74882222  0.61971257     0.05300
O800        O  0.87039245  0.79509593  0.67484356    -0.57300
H801        H  0.82075619  0.78616168  0.71634543     0.18300
O802        O  0.77094312  0.69891757  0.66247208    -0.64000
H803        H  0.82103646  0.70712745  0.62104199     0.16700
C804        C  0.89276672  0.71967556  0.61236645     0.29000
C805        C  0.91827970  0.72048954  0.58841546    -0.24900
C806        C  0.92634846  0.75020894  0.57157172    -0.24200
C807        C  0.90845230  0.77963990  0.57955123     0.40400
C808        C  0.88248454  0.77863108  0.60309912    -0.26600
O809        O  0.88690255  0.69059471  0.62955509    -0.58500
H810        H  0.93199546  0.69769756  0.58329099     0.16000
O811        O  0.91545095  0.80935682  0.56398379    -0.60000
H812        H  0.86845467  0.80123195  0.60826343     0.14500
H813        H  0.78217267  0.67689539  0.66445919     0.46400
H814        H  0.87503407  0.67579359  0.61362987     0.41700
H815        H  0.93051342  0.82145921  0.57954788     0.45200
H816        H  0.89020751  0.78340832  0.68421578     0.36700
C817        C  0.14763203  0.77422053  0.67322601    -0.27600
C818        C  0.14938639  0.74961546  0.64833918     0.02000
C819        C  0.17683214  0.72748482  0.64779961     0.30100
C820        C  0.20213841  0.73043457  0.67183689    -0.19400
C821        C  0.20001345  0.75468765  0.69700914    -0.28800
C822        C  0.17245635  0.77653991  0.69777446     0.44100
C823        C  0.12310621  0.74855837  0.62232510     0.05300
O824        O  0.17981713  0.70396202  0.62305652    -0.57300
H825        H  0.22339693  0.71359607  0.67103292     0.18300
O826        O  0.16981635  0.80029907  0.72230913    -0.64000
H827        H  0.12668272  0.79145859  0.67384155     0.16700
C828        C  0.10389547  0.71963085  0.61651025     0.29000
C829        C  0.07936031  0.71966581  0.59148999    -0.24900
C830        C  0.07294207  0.74863651  0.57259993    -0.24200
C831        C  0.09171827  0.77778347  0.57921468     0.40400
C832        C  0.11654536  0.77748081  0.60375256    -0.26600
O833        O  0.10842372  0.69145746  0.63550564    -0.58500
H834        H  0.06493238  0.69713183  0.58729894     0.16000
O835        O  0.08610216  0.80683777  0.56194029    -0.60000
H836        H  0.13092823  0.80000146  0.60821922     0.14500
H837        H  0.14934305  0.79453705  0.73515207     0.46400
H838        H  0.09682940  0.69609432  0.65693692     0.41700
H839        H  0.10069709  0.80540643  0.54192388     0.45200
H840        H  0.17653522  0.68211646  0.63429221     0.36700
C841        C  0.59882533  0.78044821  0.12252078    -0.27600
C842        C  0.61959404  0.75249856  0.12656774     0.02000
C843        C  0.61602789  0.72521060  0.10465779     0.30100
C844        C  0.59218841  0.72636895  0.07889498    -0.19400
C845        C  0.57176122  0.75469274  0.07438943    -0.28800
C846        C  0.57511350  0.78172040  0.09678017     0.44100
C847        C  0.64488860  0.75216597  0.15372330     0.05300
O848        O  0.63590001  0.69743513  0.10810338    -0.57300
H849        H  0.59001709  0.70523085  0.06214817     0.18300
O850        O  0.55433438  0.80894332  0.09468461    -0.64000
H851        H  0.60080206  0.80130932  0.13963928     0.16700
C852        C  0.67049628  0.77635860  0.15497785     0.29000
C853        C  0.69459021  0.77521078  0.18042288    -0.24900
C854        C  0.69329356  0.75037851  0.20511673    -0.24200
C855        C  0.66730247  0.72662683  0.20430921     0.40400
C856        C  0.64329430  0.72766685  0.17872970    -0.26600
O857        O  0.67292487  0.80034862  0.13062868    -0.58500
H858        H  0.71466542  0.79343183  0.18062570     0.16000
O859        O  0.66480127  0.70296768  0.22900187    -0.60000
H860        H  0.62330894  0.70934587  0.17845933     0.14500
H861        H  0.56728458  0.82596762  0.08213042     0.46400
H862        H  0.66459518  0.82119605  0.14115002     0.41700
H863        H  0.66617539  0.68107737  0.21748949     0.45200
H864        H  0.65505763  0.70107401  0.09273656     0.36700
C865        C  0.84671220  0.67051845  0.23408602    -0.27600
C866        C  0.84626864  0.64585263  0.25906130     0.02000
C867        C  0.81974907  0.64547094  0.28228940     0.30100
C868        C  0.79437690  0.66956029  0.28036947    -0.19400
C869        C  0.79483227  0.69410908  0.25533089    -0.28800
C870        C  0.82105696  0.69430631  0.23188290     0.44100
C871        C  0.87308447  0.62014800  0.25979558     0.05300
O872        O  0.81824770  0.62149445  0.30671485    -0.57300
H873        H  0.77418878  0.66911268  0.29847442     0.18300
O874        O  0.82242917  0.71844830  0.20758921    -0.64000
H875        H  0.86713932  0.67141356  0.21626500     0.16700
C876        C  0.87998802  0.60094025  0.23120925     0.29000
C877        C  0.90595773  0.57746425  0.23163443    -0.24900
C878        C  0.92543632  0.57233631  0.26043340    -0.24200
C879        C  0.91801901  0.59114027  0.28939659     0.40400
C880        C  0.89220653  0.61499993  0.28880531    -0.26600
O881        O  0.86041479  0.60392946  0.20317370    -0.58500
H882        H  0.91046872  0.56283728  0.20932499     0.16000
O883        O  0.93632364  0.58713390  0.31810844    -0.60000
H884        H  0.88730884  0.62974439  0.31097369     0.14500
H885        H  0.81889005  0.70650253  0.18620494     0.46400
H886        H  0.87478645  0.61502423  0.18629383     0.41700
H887        H  0.92378692  0.57039296  0.33144498     0.45200
H888        H  0.80281794  0.60418498  0.29789464     0.36700
C889        C  0.72745144  0.81824900  0.36216674    -0.27600
C890        C  0.74796857  0.84659627  0.35900834     0.02000
C891        C  0.76853147  0.84976612  0.33050419     0.30100
C892        C  0.76810678  0.82508805  0.30565890    -0.19400
C893        C  0.74728085  0.79703084  0.30870559    -0.28800
C894        C  0.72716101  0.79351341  0.33735113     0.44100
C895        C  0.74751157  0.87297247  0.38521506     0.05300
O896        O  0.78867947  0.87721808  0.32641727    -0.57300
H897        H  0.78370671  0.82804829  0.28370204     0.18300
O898        O  0.70671799  0.76621878  0.34094844    -0.64000
H899        H  0.71172736  0.81520822  0.38402352     0.16700
C900        C  0.71759149  0.88957452  0.39383214     0.29000
C901        C  0.71802639  0.91556152  0.41734121    -0.24900
C902        C  0.74797505  0.92518527  0.43320063    -0.24200
C903        C  0.77777240  0.90764008  0.42529232     0.40400
C904        C  0.77736736  0.88210275  0.40132751    -0.26600
O905        O  0.68801675  0.88154228  0.37831730    -0.58500
H906        H  0.69475939  0.92835042  0.42295936     0.16000
O907        O  0.80753070  0.91511628  0.44072810    -0.60000
H908        H  0.80050715  0.86918617  0.39541814     0.14500
H909        H  0.71845024  0.75140309  0.35698645     0.46400
H910        H  0.67521860  0.86833399  0.39495232     0.41700
H911        H  0.80778881  0.90130458  0.46130409     0.45200
H912        H  0.77419715  0.89427091  0.31573047     0.36700
C913        C  0.71061114  0.61070211  0.11306688    -0.27600
C914        C  0.74052359  0.62712653  0.12133261     0.02000
C915        C  0.77007383  0.61911942  0.10395237     0.30100
C916        C  0.76968198  0.59426295  0.07937118    -0.19400
C917        C  0.73989762  0.57722425  0.07129562    -0.28800
C918        C  0.71004337  0.58606611  0.08818149     0.44100
C919        C  0.74098874  0.65168263  0.14898495     0.05300
O920        O  0.79980262  0.63434432  0.11199079    -0.57300
H921        H  0.79296878  0.58813110  0.06684833     0.18300
O922        O  0.68022933  0.57062645  0.08095366    -0.64000
H923        H  0.68764649  0.61685918  0.12617121     0.16700
C924        C  0.74748995  0.68566694  0.14293207     0.29000
C925        C  0.74892339  0.70821347  0.16961899    -0.24900
C926        C  0.74340743  0.69749621  0.20260054    -0.24200
C927        C  0.73643692  0.66350055  0.20859433     0.40400
C928        C  0.73542161  0.64085946  0.18184660    -0.26600
O929        O  0.75235102  0.69706469  0.11099428    -0.58500
H930        H  0.75432009  0.73424711  0.16458594     0.16000
O931        O  0.73083948  0.65228160  0.24051882    -0.60000
H932        H  0.73042673  0.61471622  0.18677877     0.14500
H933        H  0.67916090  0.55111448  0.09620091     0.46400
H934        H  0.72977437  0.70382126  0.10306578     0.41700
H935        H  0.70764075  0.64333996  0.24070493     0.45200
H936        H  0.80353838  0.65118587  0.09421680     0.36700
C937        C  0.88494641  0.77567737  0.39300995    -0.27600
C938        C  0.87362405  0.74485042  0.38094988     0.02000
C939        C  0.88856945  0.71522192  0.39242043     0.30100
C940        C  0.91461192  0.71672736  0.41573955    -0.19400
C941        C  0.92601182  0.74759222  0.42814227    -0.28800
C942        C  0.91070780  0.77727316  0.41659283     0.44100
C943        C  0.84700860  0.74417836  0.35544657     0.05300
O944        O  0.87895244  0.68485177  0.37976179    -0.57300
H945        H  0.92596838  0.69356089  0.42396501     0.18300
O946        O  0.92079111  0.80801662  0.42784851    -0.64000
H947        H  0.87358813  0.79864137  0.38418266     0.16700
C948        C  0.81598099  0.72862589  0.36167957     0.29000
C949        C  0.79108036  0.72892567  0.33709971    -0.24900
C950        C  0.79680954  0.74468845  0.30637828    -0.24200
C951        C  0.82776722  0.76015139  0.30012974     0.40400
C952        C  0.85257890  0.76006116  0.32472678    -0.26600
O953        O  0.80973138  0.71347005  0.39178187    -0.58500
H954        H  0.76725942  0.71690011  0.34197423     0.16000
O955        O  0.83358023  0.77603806  0.27033404    -0.60000
H956        H  0.87631853  0.77226289  0.31978616     0.14500
H957        H  0.90584252  0.81309637  0.44699827     0.46400
H958        H  0.79487020  0.72909257  0.40405808     0.41700
H959        H  0.84817570  0.76067563  0.25747883     0.45200
H960        H  0.86595984  0.67395009  0.39786626     0.36700
C961        C  0.38112355  0.89361157  0.22804397    -0.27600
C962        C  0.37539776  0.87551507  0.25747960     0.02000
C963        C  0.39419136  0.88305961  0.28624979     0.30100
C964        C  0.41860842  0.90807701  0.28513309    -0.19400
C965        C  0.42482932  0.92589011  0.25550022    -0.28800
C966        C  0.40551245  0.91863571  0.22686775     0.44100
C967        C  0.35070469  0.84799117  0.25741816     0.05300
O968        O  0.38910630  0.86590853  0.31548962    -0.57300
H969        H  0.43302104  0.91320840  0.30747612     0.18300
O970        O  0.41036586  0.93557981  0.19748743    -0.64000
H971        H  0.36703966  0.88788496  0.20562921     0.16700
C972        C  0.31764865  0.85313446  0.24609464     0.29000
C973        C  0.29524168  0.82642390  0.24499045    -0.24900
C974        C  0.30505273  0.79462141  0.25577500    -0.24200
C975        C  0.33799648  0.78933380  0.26701392     0.40400
C976        C  0.36065437  0.81591336  0.26760401    -0.26600
O977        O  0.30697664  0.88414128  0.23611776    -0.58500
H978        H  0.27001564  0.83053880  0.23587628     0.16000
O979        O  0.34842988  0.75819801  0.27680735    -0.60000
H980        H  0.38618314  0.81140736  0.27567689     0.14500
H981        H  0.39395312  0.95420338  0.19795747     0.46400
H982        H  0.30102979  0.89602269  0.25703814     0.41700
H983        H  0.34183244  0.75630244  0.30061375     0.45200
H984        H  0.37189754  0.87890813  0.32778434     0.36700
C985        C  0.60746614  0.11063894  0.28315786    -0.27600
C986        C  0.61448326  0.12762196  0.25338513     0.02000
C987        C  0.59836533  0.11779524  0.22372658     0.30100
C988        C  0.57542984  0.09133473  0.22417961    -0.19400
C989        C  0.56807851  0.07432516  0.25406930    -0.28800
C990        C  0.58454519  0.08420154  0.28372095     0.44100
C991        C  0.63952849  0.15482811  0.25338675     0.05300
O992        O  0.60485088  0.13391486  0.19417613    -0.57300
H993        H  0.56313595  0.08436857  0.20109027     0.18300
O994        O  0.57935057  0.06753542  0.31321029    -0.64000
H995        H  0.62020270  0.11763015  0.30601499     0.16700
C996        C  0.63469268  0.18388262  0.27261455     0.29000
C997        C  0.65945837  0.20865971  0.27324877    -0.24900
C998        C  0.68904809  0.20486925  0.25470402    -0.24200
C999        C  0.69370657  0.17607590  0.23516769     0.40400
C1000       C  0.66903919  0.15120808  0.23470411    -0.26600
O1001       O  0.60597486  0.18811770  0.29099503    -0.58500
H1002       H  0.65576436  0.23073210  0.28845474     0.16000
O1003       O  0.72283892  0.17164457  0.21746898    -0.60000
H1004       H  0.67317446  0.12878190  0.22012890     0.14500
H1005       H  0.56287145  0.08128843  0.32567315     0.46400
H1006       H  0.59007897  0.19958986  0.27578221     0.41700
H1007       H  0.71607750  0.17064061  0.19363947     0.45200
H1008       H  0.59155026  0.15483558  0.19510679     0.36700
C1009       C  0.60911727  0.88996770  0.28993417    -0.27600
C1010       C  0.62547762  0.88115596  0.26019036     0.02000
C1011       C  0.61611616  0.89687120  0.23019403     0.30100
C1012       C  0.59024401  0.92046873  0.23010898    -0.19400
C1013       C  0.57347810  0.92923314  0.25974832    -0.28800
C1014       C  0.58361311  0.91406787  0.29001425     0.44100
C1015       C  0.65082085  0.85412133  0.26031563     0.05300
O1016       O  0.63079786  0.88787493  0.20051963    -0.57300
H1017       H  0.58318460  0.93174620  0.20654288     0.18300
O1018       O  0.56819686  0.92176036  0.31965959    -0.64000
H1019       H  0.61610712  0.87800727  0.31320267     0.16700
C1020       C  0.68352979  0.85942007  0.24809033     0.29000
C1021       C  0.70617115  0.83277588  0.24641788    -0.24900
C1022       C  0.69676660  0.80087105  0.25737028    -0.24200
C1023       C  0.66455669  0.79574166  0.27055617     0.40400
C1024       C  0.64181025  0.82231534  0.27203803    -0.26600
O1025       O  0.69363910  0.89057386  0.23802784    -0.58500
H1026       H  0.73122399  0.83701058  0.23682725     0.16000
O1027       O  0.65552989  0.76503586  0.28280407    -0.60000
H1028       H  0.61688057  0.81796378  0.28188334     0.14500
H1029       H  0.58321502  0.93816502  0.33064831     0.46400
H1030       H  0.70451435  0.90060091  0.25789902     0.41700
H1031       H  0.63956399  0.75577074  0.26622695     0.45200
H1032       H  0.64455259  0.90737298  0.19371590     0.36700
C1033       C  0.61302086  0.21001904  0.88723299    -0.27600
C1034       C  0.63164342  0.23929597  0.88191410     0.02000
C1035       C  0.62427740  0.26782839  0.90095490     0.30100
C1036       C  0.59805381  0.26737697  0.92411387    -0.19400
C1037       C  0.57871905  0.23848342  0.92921254    -0.28800
C1038       C  0.58679365  0.20935916  0.91080801     0.44100
C1039       C  0.65766136  0.24097405  0.85544403     0.05300
O1040       O  0.64260499  0.29649681  0.89695964    -0.57300
H1041       H  0.59291440  0.28988107  0.93822830     0.18300
O1042       O  0.56826409  0.18071232  0.91441455    -0.64000
H1043       H  0.61833844  0.18788693  0.87257673     0.16700
C1044       C  0.68838180  0.22390684  0.85849184     0.29000
C1045       C  0.71317159  0.22767482  0.83384119    -0.24900
C1046       C  0.70760524  0.24823267  0.80595978    -0.24200
C1047       C  0.67706655  0.26548282  0.80309507     0.40400
C1048       C  0.65231791  0.26170234  0.82766022    -0.26600
O1049       O  0.69481483  0.20458185  0.88604235    -0.58500
H1050       H  0.73668612  0.21434132  0.83630281     0.16000
O1051       O  0.67104464  0.28557890  0.77600440    -0.60000
H1052       H  0.62886646  0.27513703  0.82512352     0.14500
H1053       H  0.58291146  0.16499154  0.92683345     0.46400
H1054       H  0.69182179  0.18118235  0.87844756     0.41700
H1055       H  0.67185505  0.30873844  0.78468323     0.45200
H1056       H  0.66327553  0.29280756  0.91017458     0.36700
C1057       C  0.89354579  0.39146829  0.71740021    -0.27600
C1058       C  0.88625424  0.37623292  0.74806738     0.02000
C1059       C  0.90437428  0.38558515  0.77669612     0.30100
C1060       C  0.92894781  0.41036769  0.77451832    -0.19400
C1061       C  0.93600335  0.42618136  0.74391792    -0.28800
C1062       C  0.91816534  0.41622705  0.71511340     0.44100
C1063       C  0.85948690  0.35080671  0.75000138     0.05300
O1064       O  0.89799972  0.37090813  0.80700997    -0.57300
H1065       H  0.94234741  0.41734010  0.79698725     0.18300
O1066       O  0.92436415  0.43053594  0.68460270    -0.64000
H1067       H  0.88000677  0.38414940  0.69511543     0.16700
C1068       C  0.82635574  0.35858604  0.74067199     0.29000
C1069       C  0.80141857  0.33411087  0.74252779    -0.24900
C1070       C  0.80911875  0.30174343  0.75348608    -0.24200
C1071       C  0.84215802  0.29397902  0.76294522     0.40400
C1072       C  0.86712450  0.31847481  0.76114829    -0.26600
O1073       O  0.81820515  0.38997119  0.72956166    -0.58500
H1074       H  0.77611766  0.34019202  0.73479234     0.16000
O1075       O  0.85034626  0.26222802  0.77292266    -0.60000
H1076       H  0.89260469  0.31211867  0.76806393     0.14500
H1077       H  0.90820688  0.44930451  0.68284815     0.46400
H1078       H  0.81051633  0.40221533  0.74971117     0.41700
H1079       H  0.85555647  0.26398954  0.79706799     0.45200
H1080       H  0.87838134  0.38306547  0.81618184     0.36700
C1081       C  0.73725816  0.18009212  0.64706260    -0.27600
C1082       C  0.74984202  0.14826989  0.65484900     0.02000
C1083       C  0.76561229  0.14304730  0.68589345     0.30100
C1084       C  0.76841268  0.16933285  0.70866281    -0.19400
C1085       C  0.75576482  0.20104425  0.70089515    -0.28800
C1086       C  0.74043972  0.20651829  0.66976407     0.44100
C1087       C  0.74833467  0.12128815  0.62962505     0.05300
O1088       O  0.77812254  0.11225986  0.69428856    -0.57300
H1089       H  0.78004172  0.16491017  0.73271642     0.18300
O1090       O  0.72776557  0.23733708  0.66175907    -0.64000
H1091       H  0.72543842  0.18455373  0.62311324     0.16700
C1092       C  0.71767093  0.11029730  0.61616414     0.29000
C1093       C  0.71740444  0.08606238  0.59084399    -0.24900
C1094       C  0.74752986  0.07220469  0.57875863    -0.24200
C1095       C  0.77815067  0.08286281  0.59308061     0.40400
C1096       C  0.77827509  0.10709157  0.61818790    -0.26600
O1097       O  0.68788717  0.12302544  0.62767359    -0.58500
H1098       H  0.69352801  0.07818281  0.58065998     0.16000
O1099       O  0.80823098  0.06954890  0.58313645    -0.60000
H1100       H  0.80204690  0.11528610  0.62841392     0.14500
H1101       H  0.74467573  0.24755236  0.64674015     0.46400
H1102       H  0.67999687  0.10680311  0.64468453     0.41700
H1103       H  0.81755418  0.08580915  0.56690311     0.45200
H1104       H  0.75893044  0.10001656  0.70416789     0.36700
C1105       C  0.77282601  0.31710355  0.86272003    -0.27600
C1106       C  0.75477985  0.34690897  0.85830610     0.02000
C1107       C  0.73917492  0.35329727  0.82744633     0.30100
C1108       C  0.74139388  0.32989896  0.80163573    -0.19400
C1109       C  0.75874713  0.29987012  0.80625556    -0.28800
C1110       C  0.77477771  0.29352548  0.83688073     0.44100
C1111       C  0.75292578  0.37170596  0.88562643     0.05300
O1112       O  0.72260117  0.38284397  0.82204550    -0.57300
H1113       H  0.72921128  0.33501958  0.77800783     0.18300
O1114       O  0.79144639  0.26398185  0.84198328    -0.64000
H1115       H  0.78502830  0.31197433  0.88634602     0.16700
C1116       C  0.72201543  0.38062376  0.90000642     0.29000
C1117       C  0.72051815  0.40605660  0.92399364    -0.24900
C1118       C  0.74975055  0.42272798  0.93442235    -0.24200
C1119       C  0.78090859  0.41278166  0.92063805     0.40400
C1120       C  0.78221634  0.38757381  0.89644899    -0.26600
O1121       O  0.69312039  0.36462670  0.89067642    -0.58500
H1122       H  0.69633753  0.41272882  0.93436762     0.16000
O1123       O  0.81022596  0.42816624  0.92972593    -0.60000
H1124       H  0.80616985  0.38088601  0.88553311     0.14500
H1125       H  0.81556739  0.26993338  0.84238095     0.46400
H1126       H  0.68981398  0.34699786  0.90774954     0.41700
H1127       H  0.81977824  0.41393022  0.94762311     0.45200
H1128       H  0.69848238  0.37689890  0.82111291     0.36700
C1129       C  0.65292752  0.17907247  0.72978338    -0.27600
C1130       C  0.65700096  0.15019980  0.74922929     0.02000
C1131       C  0.68574977  0.14656170  0.76922817     0.30100
C1132       C  0.70960490  0.17203062  0.77031418    -0.19400
C1133       C  0.70519782  0.20115504  0.75151005    -0.28800
C1134       C  0.67686204  0.20460788  0.73089897     0.44100
C1135       C  0.63084233  0.12420702  0.74912465     0.05300
O1136       O  0.69133569  0.11755393  0.78659984    -0.57300
H1137       H  0.73187828  0.16890637  0.78548364     0.18300
O1138       O  0.67287345  0.23244036  0.71130258    -0.64000
H1139       H  0.63101374  0.18192126  0.71404614     0.16700
C1140       C  0.61283341  0.11691527  0.77840771     0.29000
C1141       C  0.58846364  0.09188804  0.77823105    -0.24900
C1142       C  0.58109221  0.07414225  0.74886168    -0.24200
C1143       C  0.59932918  0.08154811  0.71943677     0.40400
C1144       C  0.62383213  0.10659173  0.71974251    -0.26600
O1145       O  0.61855578  0.13450085  0.80724549    -0.58500
H1146       H  0.57483426  0.08686588  0.80109294     0.16000
O1147       O  0.59350441  0.06458322  0.69025636    -0.60000
H1148       H  0.63766038  0.11205762  0.69708153     0.14500
H1149       H  0.65521145  0.24588309  0.72242862     0.46400
H1150       H  0.60373950  0.15434902  0.80578179     0.41700
H1151       H  0.61006395  0.04608094  0.69009803     0.45200
H1152       H  0.68673290  0.12309283  0.81029791     0.36700
C1153       C  0.38391085  0.27629924  0.10230419    -0.27600
C1154       C  0.37568079  0.24653013  0.11887615     0.02000
C1155       C  0.39301546  0.21702116  0.11068907     0.30100
C1156       C  0.41762833  0.21744951  0.08585694    -0.19400
C1157       C  0.42597282  0.24719641  0.06905708    -0.28800
C1158       C  0.40883704  0.27686991  0.07766883     0.44100
C1159       C  0.34822683  0.24621973  0.14378108     0.05300
O1160       O  0.38621337  0.18760477  0.12692621    -0.57300
H1161       H  0.43046682  0.19432511  0.08003023     0.18300
O1162       O  0.41601301  0.30656033  0.06216454    -0.64000
H1163       H  0.37049015  0.29913121  0.10800853     0.16700
C1164       C  0.34774132  0.26892921  0.17065625     0.29000
C1165       C  0.32149301  0.26794779  0.19376689    -0.24900
C1166       C  0.29511503  0.24520211  0.18994640    -0.24200
C1167       C  0.29538857  0.22260413  0.16316172     0.40400
C1168       C  0.32184631  0.22325019  0.14024132    -0.26600
O1169       O  0.37338578  0.29130736  0.17516304    -0.58500
H1170       H  0.32181083  0.28485630  0.21487318     0.16000
O1171       O  0.26945287  0.20050428  0.15887381    -0.60000
H1172       H  0.32156035  0.20599915  0.11940251     0.14500
H1173       H  0.39979400  0.30817813  0.04345408     0.46400
H1174       H  0.36369838  0.31347280  0.16968744     0.41700
H1175       H  0.27941299  0.17784977  0.16218912     0.45200
H1176       H  0.39985284  0.18832100  0.14761370     0.36700
C1177       C  0.10808644  0.38455829  0.27952072    -0.27600
C1178       C  0.11829593  0.37271468  0.24820371     0.02000
C1179       C  0.10422114  0.38654915  0.21917341     0.30100
C1180       C  0.07981526  0.41154560  0.22167487    -0.19400
C1181       C  0.06926124  0.42354843  0.25301904    -0.28800
C1182       C  0.08396454  0.40987966  0.28214080     0.44100
C1183       C  0.14371357  0.34593961  0.24597108     0.05300
O1184       O  0.11441480  0.37595465  0.18820939    -0.57300
H1185       H  0.06932649  0.42167847  0.19887218     0.18300
O1186       O  0.07482386  0.42074044  0.31332392    -0.64000
H1187       H  0.11881847  0.37403520  0.30205552     0.16700
C1188       C  0.17655069  0.35105663  0.25775448     0.29000
C1189       C  0.20027063  0.32545878  0.25528430    -0.24900
C1190       C  0.19166637  0.29470093  0.24100927    -0.24200
C1191       C  0.15896115  0.28955223  0.22903662     0.40400
C1192       C  0.13514038  0.31511140  0.23165943    -0.26600
O1193       O  0.18568051  0.38104844  0.27153609    -0.58500
H1194       H  0.22546307  0.32954715  0.26453632     0.16000
O1195       O  0.15000959  0.25944760  0.21534819    -0.60000
H1196       H  0.10988689  0.31085348  0.22265373     0.14500
H1197       H  0.09224559  0.43719256  0.31977638     0.46400
H1198       H  0.19491999  0.39429084  0.25272058     0.41700
H1199       H  0.14840887  0.26350935  0.19102496     0.45200
H1200       H  0.13207193  0.39198928  0.18128906     0.36700
C1201       C  0.22434315  0.13953640  0.31327772    -0.27600
C1202       C  0.24618828  0.14308576  0.34051428     0.02000
C1203       C  0.26681684  0.17154934  0.34265951     0.30100
C1204       C  0.26547435  0.19590282  0.31772916    -0.19400
C1205       C  0.24364327  0.19231331  0.29058770    -0.28800
C1206       C  0.22305033  0.16394129  0.28830812     0.44100
C1207       C  0.24725567  0.11711728  0.36668672     0.05300
O1208       O  0.28809287  0.17593038  0.36920277    -0.57300
H1209       H  0.28129572  0.21779065  0.31964577     0.18300
O1210       O  0.20145328  0.16014742  0.26191868    -0.64000
H1211       H  0.20853328  0.11763927  0.31120118     0.16700
C1212       C  0.21810324  0.10797718  0.38418674     0.29000
C1213       C  0.21993097  0.08416863  0.40965638    -0.24900
C1214       C  0.25063142  0.06902204  0.41806299    -0.24200
C1215       C  0.27972953  0.07790115  0.40002218     0.40400
C1216       C  0.27784170  0.10179283  0.37463662    -0.26600
O1217       O  0.18809216  0.12347888  0.37774118    -0.58500
H1218       H  0.19723140  0.07799867  0.42318685     0.16000
O1219       O  0.31022627  0.06373332  0.40709785    -0.60000
H1220       H  0.30039776  0.10840897  0.36105824     0.14500
H1221       H  0.21118969  0.14209040  0.24801731     0.46400
H1222       H  0.17461178  0.10688958  0.36521554     0.41700
H1223       H  0.31199308  0.04420755  0.39194715     0.45200
H1224       H  0.27418515  0.18637111  0.38691007     0.36700
C1225       C  0.22494026  0.31867539  0.13560324    -0.27600
C1226       C  0.24538839  0.34680732  0.14070988     0.02000
C1227       C  0.26434574  0.34907885  0.17027663     0.30100
C1228       C  0.26229213  0.32384024  0.19440470    -0.19400
C1229       C  0.24254925  0.29543001  0.18898941    -0.28800
C1230       C  0.22395045  0.29276526  0.15924955     0.44100
C1231       C  0.24669455  0.37381751  0.11526639     0.05300
O1232       O  0.28418703  0.37640444  0.17620268    -0.57300
H1233       H  0.27645515  0.32626831  0.21734987     0.18300
O1234       O  0.20479672  0.26500602  0.15313865    -0.64000
H1235       H  0.21026032  0.31654082  0.11294329     0.16700
C1236       C  0.27657598  0.38112062  0.09799727     0.29000
C1237       C  0.27758100  0.40745684  0.07485843    -0.24900
C1238       C  0.24887506  0.42678915  0.06809662    -0.24200
C1239       C  0.21880856  0.41906609  0.08531743     0.40400
C1240       C  0.21797156  0.39284611  0.10859224    -0.26600
O1241       O  0.30495754  0.36253888  0.10346316    -0.58500
H1242       H  0.30087252  0.41246407  0.06187047     0.16000
O1243       O  0.19027411  0.43757191  0.08044118    -0.60000
H1244       H  0.19485295  0.38762310  0.12184225     0.14500
H1245       H  0.21951937  0.24979100  0.14016629     0.46400
H1246       H  0.30220018  0.34224093  0.08958985     0.41700
H1247       H  0.17651462  0.42438858  0.06458639     0.45200
H1248       H  0.30754021  0.36844431  0.17305284     0.36700
C1249       C  0.35303160  0.17843116  0.25345888    -0.27600
C1250       C  0.34652240  0.14573667  0.24266348     0.02000
C1251       C  0.31423601  0.13721428  0.23143948     0.30100
C1252       C  0.28906892  0.16146593  0.23056590    -0.19400
C1253       C  0.29567214  0.19421369  0.24088069    -0.28800
C1254       C  0.32771678  0.20260623  0.25285077     0.44100
C1255       C  0.37324851  0.12035250  0.24436300     0.05300
O1256       O  0.30676753  0.10490986  0.22277268    -0.57300
H1257       H  0.26431530  0.15474929  0.22178408     0.18300
O1258       O  0.33438903  0.23430806  0.26398593    -0.64000
H1259       H  0.37773968  0.18512632  0.26248972     0.16700
C1260       C  0.38458613  0.10390820  0.21545556     0.29000
C1261       C  0.40938579  0.07933343  0.21791778    -0.24900
C1262       C  0.42321590  0.07067480  0.24908477    -0.24200
C1263       C  0.41161536  0.08732405  0.27801721     0.40400
C1264       C  0.38716950  0.11219345  0.27537765    -0.26600
O1265       O  0.37158323  0.11166636  0.18469805    -0.58500
H1266       H  0.41770916  0.06699853  0.19530915     0.16000
O1267       O  0.42411703  0.07982732  0.30902567    -0.60000
H1268       H  0.37854727  0.12474935  0.29777268     0.14500
H1269       H  0.33358932  0.23286421  0.28869576     0.46400
H1270       H  0.38366795  0.13209428  0.17749944     0.41700
H1271       H  0.40813917  0.06343263  0.31861631     0.45200
H1272       H  0.30407233  0.10514699  0.19814750     0.36700
C1273       C  0.87923359  0.27413787  0.39912138    -0.27600
C1274       C  0.87039811  0.24433702  0.38308768     0.02000
C1275       C  0.88849482  0.21501851  0.39017970     0.30100
C1276       C  0.91502372  0.21578879  0.41313214    -0.19400
C1277       C  0.92412785  0.24568801  0.42923731    -0.28800
C1278       C  0.90579058  0.27506853  0.42193601     0.44100
C1279       C  0.84308300  0.24464484  0.35806570     0.05300
O1280       O  0.88048573  0.18552113  0.37471623    -0.57300
H1281       H  0.92862647  0.19290543  0.41813048     0.18300
O1282       O  0.91370504  0.30498528  0.43662498    -0.64000
H1283       H  0.86572305  0.29696600  0.39355363     0.16700
C1284       C  0.81030503  0.25433551  0.36690800     0.29000
C1285       C  0.78554119  0.25710155  0.34230762    -0.24900
C1286       C  0.79291847  0.24995654  0.30881042    -0.24200
C1287       C  0.82543773  0.23939748  0.30011705     0.40400
C1288       C  0.85028751  0.23693968  0.32465097    -0.26600
O1289       O  0.80234237  0.26133370  0.39948565    -0.58500
H1290       H  0.76054127  0.26503650  0.34932037     0.16000
O1291       O  0.83335284  0.23213015  0.26760081    -0.60000
H1292       H  0.87544301  0.22962580  0.31749202     0.14500
H1293       H  0.89790454  0.30725880  0.45564260     0.46400
H1294       H  0.79463022  0.23978268  0.40905226     0.41700
H1295       H  0.82772054  0.20819655  0.26470074     0.45200
H1296       H  0.86427485  0.17441540  0.38986275     0.36700
C1297       C  0.14803250  0.24875098  0.67477284    -0.27600
C1298       C  0.15610598  0.25308578  0.64098669     0.02000
C1299       C  0.18935122  0.26022582  0.63180260     0.30100
C1300       C  0.21411104  0.26302017  0.65638982    -0.19400
C1301       C  0.20637142  0.25751311  0.69014368    -0.28800
C1302       C  0.17298840  0.25045748  0.69928242     0.44100
C1303       C  0.12937035  0.25141330  0.61561727     0.05300
O1304       O  0.19762385  0.26533713  0.59895047    -0.57300
H1305       H  0.23950203  0.26920089  0.64908501     0.18300
O1306       O  0.16453590  0.24540657  0.73210352    -0.64000
H1307       H  0.12238103  0.24360777  0.68207383     0.16700
C1308       C  0.12624954  0.22368715  0.59429580     0.29000
C1309       C  0.10064880  0.22289098  0.57033380    -0.24900
C1310       C  0.07789926  0.24957052  0.56737367    -0.24200
C1311       C  0.08112990  0.27725192  0.58899652     0.40400
C1312       C  0.10657749  0.27785376  0.61300652    -0.26600
O1313       O  0.14798189  0.19724420  0.59684924    -0.58500
H1314       H  0.09868153  0.20144311  0.55396038     0.16000
O1315       O  0.05867977  0.30320050  0.58788345    -0.60000
H1316       H  0.10860480  0.29911022  0.62963790     0.14500
H1317       H  0.16264356  0.22087692  0.73477841     0.46400
H1318       H  0.13691142  0.18130997  0.61225151     0.41700
H1319       H  0.07026250  0.32122983  0.57539396     0.45200
H1320       H  0.20690946  0.24368519  0.59114493     0.36700
C1321       C  0.90633877  0.27410964  0.62205019    -0.27600
C1322       C  0.88542672  0.24636543  0.62666745     0.02000
C1323       C  0.88854345  0.21869723  0.60524987     0.30100
C1324       C  0.91239528  0.21910677  0.57955834    -0.19400
C1325       C  0.93320945  0.24703107  0.57464538    -0.28800
C1326       C  0.93013186  0.27460723  0.59637995     0.44100
C1327       C  0.85928530  0.24750007  0.65281603     0.05300
O1328       O  0.86705671  0.19207672  0.60801948    -0.57300
H1329       H  0.91402326  0.19781539  0.56293974     0.18300
O1330       O  0.95013781  0.30223208  0.59276031    -0.64000
H1331       H  0.90410050  0.29555537  0.63841247     0.16700
C1332       C  0.85882857  0.22433318  0.67926179     0.29000
C1333       C  0.83350078  0.22597348  0.70339102    -0.24900
C1334       C  0.80870713  0.25079790  0.70175988    -0.24200
C1335       C  0.80947165  0.27431667  0.67569089     0.40400
C1336       C  0.83464529  0.27246327  0.65136244    -0.26600
O1337       O  0.88316560  0.20026541  0.68189370    -0.58500
H1338       H  0.83326696  0.20797185  0.72360236     0.16000
O1339       O  0.78490065  0.29821124  0.67315599    -0.60000
H1340       H  0.83475747  0.29037691  0.63106622     0.14500
H1341       H  0.96895553  0.29884608  0.60860244     0.46400
H1342       H  0.90092861  0.21039761  0.69590558     0.41700
H1343       H  0.79668331  0.32002053  0.67359537     0.45200
H1344       H  0.88035199  0.17406206  0.61867314     0.36700
C1345       C  0.11145450  0.27359126  0.38495499    -0.27600
C1346       C  0.12355795  0.24280163  0.37360343     0.02000
C1347       C  0.11116599  0.21310156  0.38766911     0.30100
C1348       C  0.08640925  0.21451918  0.41241635    -0.19400
C1349       C  0.07338728  0.24536736  0.42327141    -0.28800
C1350       C  0.08638710  0.27510186  0.40931289     0.44100
C1351       C  0.14790427  0.24215725  0.34587762     0.05300
O1352       O  0.12383633  0.18270962  0.37801519    -0.57300
H1353       H  0.07735899  0.19130338  0.42299527     0.18300
O1354       O  0.07494047  0.30584018  0.41921763    -0.64000
H1355       H  0.12090174  0.29659507  0.37422127     0.16700
C1356       C  0.13932610  0.22751113  0.31509337     0.29000
C1357       C  0.16222059  0.22785221  0.28870522    -0.24900
C1358       C  0.19330597  0.24363880  0.29229801    -0.24200
C1359       C  0.20172305  0.25886477  0.32279459     0.40400
C1360       C  0.17910655  0.25791136  0.34948345    -0.26600
O1361       O  0.10835845  0.21341475  0.31039341    -0.58500
H1362       H  0.15569405  0.21587305  0.26536029     0.16000
O1363       O  0.23220731  0.27419031  0.32678934    -0.60000
H1364       H  0.18583413  0.26953808  0.37297647     0.14500
H1365       H  0.05664535  0.31141083  0.40338157     0.46400
H1366       H  0.09373911  0.23205037  0.30298974     0.41700
H1367       H  0.22788912  0.29825525  0.32273785     0.45200
H1368       H  0.10577194  0.17195775  0.36480882     0.36700
loop_ 
_geom_bond_atom_site_label_1 
_geom_bond_atom_site_label_2 
_geom_bond_distance 
_geom_bond_site_symmetry_2 
_ccdc_geom_bond_type 
O1           Cu9   2.022   1_655  S
O1           C11   1.280       .  A
O2           Cu9   2.020       .  S
O2           C12   1.280       .  A
O3           Cu9   2.006   1_655  S
O3           C13   1.278       .  A
O4           Cu9   2.000       .  S
O4           C14   1.277       .  A
O5          Cu10   2.008       .  S
O5           C14   1.278       .  A
O6          Cu10   2.007   1_655  S
O6           C13   1.278       .  A
O7          Cu10   1.996       .  S
O7           C12   1.276       .  A
O8          Cu10   2.003   1_655  S
O8           C11   1.277       .  A
Cu9         Cu10   2.369       .  S
C11        C1277   1.489       .  S
C12        C1310   1.481       .  S
C13        C1325   1.481       .  S
C14        C1349   1.484       .  S
C15        C1253   1.482       .  S
C15          C16   1.406       .  A
C15          C20   1.410       .  A
C16        C1205   1.481       .  S
C16          C17   1.407       .  A
C17        C1358   1.479       .  S
C17          C18   1.412       .  A
C18        C1190   1.480       .  S
C18          C19   1.413       .  A
C19        C1229   1.489       .  S
C19          C20   1.413       .  A
C20        C1166   1.478       .  S
C21        C1334   1.485       .  S
C21          C22   1.415       .  A
C21          C26   1.410       .  A
C22        C1070   1.484       .  S
C22          C23   1.416       .  A
C23        C1109   1.481       .  S
C23          C24   1.412       .  A
C24        C1046   1.489       .  S
C24          C25   1.410       .  A
C25        C1133   1.479       .  S
C25          C26   1.409       .  A
C26        C1085   1.484       .  S
O27         Cu35   2.010   1_545  S
O27          C37   1.278       .  A
O28         Cu35   2.008       .  S
O28          C38   1.278       .  A
O29         Cu35   2.005   1_545  S
O29          C39   1.278       .  A
O30         Cu35   2.009       .  S
O30          C40   1.279       .  A
O31         Cu36   2.007   1_565  S
O31          C40   1.277       .  A
O32         Cu36   2.003       .  S
O32          C39   1.277       .  A
O33         Cu36   2.002   1_565  S
O33          C38   1.277       .  A
O34         Cu36   2.001       .  S
O34          C37   1.277       .  A
Cu35        Cu36   2.368   1_565  S
C37         C989   1.484       .  S
C38         C965   1.481       .  S
C39        C1262   1.484       .  S
C40        C1013   1.486       .  S
C41        C1022   1.481       .  S
C41          C42   1.417       .  A
C41          C46   1.410       .  A
C42         C854   1.490       .  S
C42          C43   1.420       .  A
C43         C926   1.496       .  S
C43          C44   1.418       .  A
C44         C869   1.488       .  S
C44          C45   1.415       .  A
C45         C950   1.479       .  S
C45          C46   1.408       .  A
C46         C893   1.493       .  S
O47         Cu55   2.005       .  S
O47          C57   1.277       .  A
O48         Cu55   2.000   1_655  S
O48          C58   1.277       .  A
O49         Cu55   2.015       .  S
O49          C59   1.279       .  A
O50         Cu55   2.009   1_655  S
O50          C60   1.279       .  A
O51         Cu56   2.001   1_655  S
O51          C60   1.276       .  A
O52         Cu56   2.002       .  S
O52          C59   1.277       .  A
O53         Cu56   2.001   1_655  S
O53          C58   1.277       .  A
O54         Cu56   1.999       .  S
O54          C57   1.278       .  A
Cu55        Cu56   2.369       .  S
C57         C830   1.482       .  S
C58         C941   1.482       .  S
C59         C782   1.484       .  S
C60         C806   1.484       .  S
C61         C686   1.485       .  S
C61          C62   1.410       .  A
C61          C66   1.412       .  A
C62         C821   1.485       .  S
C62          C63   1.412       .  A
C63         C701   1.480       .  S
C63          C64   1.414       .  A
C64         C749   1.491       .  S
C64          C65   1.415       .  A
C65         C653   1.482       .  S
C65          C66   1.416       .  A
C66         C725   1.487       .  S
O67         Cu75   2.008       .  S
O67          C77   1.277       .  A
O68         Cu75   2.003   1_565  S
O68          C78   1.277       .  A
O69         Cu75   2.013       .  S
O69          C79   1.280       .  A
O70         Cu75   2.020   1_565  S
O70          C80   1.280       .  A
O71         Cu76   2.004   1_565  S
O71          C80   1.277       .  A
O72         Cu76   2.000       .  S
O72          C79   1.276       .  A
O73         Cu76   2.016   1_565  S
O73          C78   1.280       .  A
O74         Cu76   2.017       .  S
O74          C77   1.280       .  A
Cu75        Cu76   2.367       .  S
C77         C605   1.488       .  S
C78         C629   1.487       .  S
C79        C1142   1.483       .  S
C80         C758   1.487       .  S
O81         Cu89   2.038   1_554  S
O81          C91   1.282       .  A
O82         Cu89   2.038       .  S
O82          C92   1.282       .  A
O83         Cu89   1.998   1_554  S
O83          C93   1.276       .  A
O84         Cu89   1.998       .  S
O84          C94   1.277       .  A
O85         Cu90   2.018       .  S
O85          C94   1.279       .  A
O86         Cu90   2.015   1_554  S
O86          C93   1.279       .  A
O87         Cu90   2.012       .  S
O87          C92   1.278       .  A
O88         Cu90   2.007   1_554  S
O88          C91   1.277       .  A
Cu89        Cu90   2.365       .  S
C91        C1238   1.495       .  S
C92         C734   1.498       .  S
C93         C590   1.481       .  S
C94         C566   1.487       .  S
O95        Cu103   2.016       .  S
O95         C105   1.279       .  A
O96        Cu103   2.023   1_556  S
O96         C106   1.280       .  A
O97        Cu103   2.015       .  S
O97         C107   1.279       .  A
O98        Cu103   2.016   1_556  S
O98         C108   1.279       .  A
O99        Cu104   2.012   1_556  S
O99         C108   1.279       .  A
O100       Cu104   2.015       .  S
O100        C107   1.279       .  A
O101       Cu104   2.002   1_556  S
O101        C106   1.277       .  A
O102       Cu104   2.001       .  S
O102        C105   1.278       .  A
Cu103      Cu104   2.366       .  S
C105        C917   1.488       .  S
C106       C1118   1.490       .  S
C107        C509   1.492       .  S
C108        C542   1.488       .  S
C109        C797   1.488       .  S
C109        C110   1.417       .  A
C109        C114   1.412       .  A
C110        C461   1.486       .  S
C110        C111   1.417       .  A
C111        C533   1.488       .  S
C111        C112   1.412       .  A
C112        C446   1.478       .  S
C112        C113   1.409       .  A
C113        C638   1.487       .  S
C113        C114   1.408       .  A
C114        C494   1.478       .  S
O115       Cu123   2.007   1_565  S
O115        C125   1.277       .  A
O116       Cu123   2.000       .  S
O116        C126   1.277       .  A
O117       Cu123   2.016   1_565  S
O117        C127   1.280       .  A
O118       Cu123   2.022       .  S
O118        C128   1.280       .  A
O119       Cu124   2.003       .  S
O119        C128   1.277       .  A
O120       Cu124   1.996   1_565  S
O120        C127   1.276       .  A
O121       Cu124   2.024       .  S
O121        C126   1.280       .  A
O122       Cu124   2.025   1_565  S
O122        C125   1.281       .  A
Cu123      Cu124   2.365       .  S
C125        C902   1.492       .  S
C126       C1094   1.490       .  S
C127        C485   1.486       .  S
C128        C422   1.490       .  S
C129        C389   1.483       .  S
C129        C130   1.416       .  A
C129        C134   1.413       .  A
C130       C1286   1.487       .  S
C130        C131   1.414       .  A
C131        C413   1.487       .  S
C131        C132   1.412       .  A
C132        C998   1.484       .  S
C132        C133   1.413       .  A
C133        C365   1.481       .  S
C133        C134   1.411       .  A
C134        C518   1.488       .  S
O135       Cu143   2.007   1_455  S
O135        C145   1.278       .  A
O136       Cu143   2.008       .  S
O136        C146   1.278       .  A
O137       Cu143   2.012   1_455  S
O137        C147   1.278       .  A
O138       Cu143   2.016       .  S
O138        C148   1.278       .  A
O139       Cu144   2.009       .  S
O139        C148   1.279       .  A
O140       Cu144   2.009   1_455  S
O140        C147   1.279       .  A
O141       Cu144   2.017       .  S
O141        C146   1.279       .  A
O142       Cu144   2.020   1_455  S
O142        C145   1.280       .  A
Cu143      Cu144   2.366       .  S
C145        C350   1.490       .  S
C146        C398   1.487       .  S
C147       C1181   1.489       .  S
C148        C878   1.487       .  S
C149        C974   1.479       .  S
C149        C150   1.410       .  A
C149        C154   1.408       .  A
C150        C317   1.485       .  S
C150        C151   1.411       .  A
C151        C773   1.486       .  S
C151        C152   1.416       .  A
C152        C341   1.491       .  S
C152        C153   1.418       .  A
C153        C581   1.480       .  S
C153        C154   1.412       .  A
C154        C293   1.487       .  S
O155       Cu163   2.016       .  S
O155        C165   1.279       .  A
O156       Cu163   2.007   1_565  S
O156        C166   1.278       .  A
O157       Cu163   2.005       .  S
O157        C167   1.278       .  A
O158       Cu163   2.005   1_565  S
O158        C168   1.278       .  A
O159       Cu164   1.993   1_565  S
O159        C168   1.276       .  A
O160       Cu164   1.993       .  S
O160        C167   1.276       .  A
O161       Cu164   2.017   1_565  S
O161        C166   1.279       .  A
O162       Cu164   2.019       .  S
O162        C165   1.280       .  A
Cu163      Cu164   2.367       .  S
C165        C269   1.494       .  S
C166        C326   1.489       .  S
C167       C1214   1.480       .  S
C168        C710   1.481       .  S
C169        C614   1.483       .  S
C169        C170   1.412       .  A
C169        C174   1.413       .  A
C170        C278   1.490       .  S
C170        C171   1.416       .  A
C171       C1301   1.489       .  S
C171        C172   1.418       .  A
C172        C245   1.484       .  S
C172        C173   1.415       .  A
C173        C557   1.491       .  S
C173        C174   1.411       .  A
C174        C221   1.484       .  S
O175       Cu183   2.000   1_655  S
O175        C185   1.277       .  A
O176       Cu183   2.003       .  S
O176        C186   1.277       .  A
O177       Cu183   2.006   1_655  S
O177        C187   1.278       .  A
O178       Cu183   2.016       .  S
O178        C188   1.279       .  A
O179       Cu184   2.003       .  S
O179        C188   1.278       .  A
O180       Cu184   1.999   1_655  S
O180        C187   1.277       .  A
O181       Cu184   2.005       .  S
O181        C186   1.278       .  A
O182       Cu184   2.008   1_655  S
O182        C185   1.279       .  A
Cu183      Cu184   2.368       .  S
C185        C470   1.485       .  S
C186        C254   1.481       .  S
C187       C1061   1.482       .  S
C188        C677   1.488       .  S
O189       Cu197   2.003   1_554  S
O189        C199   1.278       .  A
O190       Cu197   2.015       .  S
O190        C200   1.277       .  A
O191       Cu197   2.032   1_554  S
O191        C201   1.282       .  A
O192       Cu197   2.033       .  S
O192        C202   1.281       .  A
O193       Cu198   1.991       .  S
O193        C202   1.275       .  A
O194       Cu198   1.990   1_554  S
O194        C201   1.275       .  A
O195       Cu198   2.020       .  S
O195        C200   1.281       .  A
O196       Cu198   2.017   1_554  S
O196        C199   1.279       .  A
Cu197      Cu198   2.366       .  S
C199       C1157   1.486       .  S
C200       C1037   1.491       .  S
C201        C374   1.490       .  S
C202        C230   1.488       .  S
O203       Cu211   1.997   1_554  S
O203        C213   1.278       .  A
O204       Cu211   1.996       .  S
O204        C214   1.277       .  A
O205       Cu211   2.014   1_554  S
O205        C215   1.278       .  A
O206       Cu211   2.009       .  S
O206        C216   1.278       .  A
O207       Cu212   2.016       .  S
O207        C216   1.279       .  A
O208       Cu212   2.013   1_554  S
O208        C215   1.279       .  A
O209       Cu212   2.021       .  S
O209        C214   1.279       .  A
O210       Cu212   2.015   1_554  S
O210        C213   1.278       .  A
Cu211      Cu212   2.367       .  S
C213        C302   1.485       .  S
C214        C437   1.486       .  S
C215        C845   1.486       .  S
C216        C662   1.489       .  S
C217        C218   1.405       .  A
C217        C222   1.400       .  A
C217        H227   1.084       .  S
C218        C223   1.482       .  S
C218        C219   1.408       .  A
C219        C220   1.400       .  A
C219        O224   1.372       .  S
C220        C221   1.401       .  A
C220        H225   1.083       .  S
C221        C222   1.405       .  A
C222        O226   1.372       .  S
C223        C228   1.410       .  A
C223        C232   1.400       .  A
O224        H240   0.992       .  S
O226        H237   0.992       .  S
C228        C229   1.404       .  A
C228        O233   1.372       .  S
C229        C230   1.407       .  A
C229        H234   1.083       .  S
C230        C231   1.415       .  A
C231        C232   1.397       .  A
C231        O235   1.372       .  S
C232        H236   1.084       .  S
O233        H238   0.992       .  S
O235        H239   0.992       .  S
C241        C242   1.405       .  A
C241        C246   1.400       .  A
C241        H251   1.084       .  S
C242        C247   1.480       .  S
C242        C243   1.408       .  A
C243        C244   1.397       .  A
C243        O248   1.373       .  S
C244        C245   1.401       .  A
C244        H249   1.083       .  S
C245        C246   1.407       .  A
C246        O250   1.372       .  S
C247        C252   1.408       .  A
C247        C256   1.402       .  A
O248        H264   0.992       .  S
O250        H261   0.990       .  S
C252        C253   1.398       .  A
C252        O257   1.372       .  S
C253        C254   1.405       .  A
C253        H258   1.083       .  S
C254        C255   1.413       .  A
C255        C256   1.399       .  A
C255        O259   1.372       .  S
C256        H260   1.084       .  S
O257        H262   0.992       .  S
O259        H263   0.992       .  S
C265        C266   1.404       .  A
C265        C270   1.402       .  A
C265        H275   1.084       .  S
C266        C271   1.492       .  S
C266        C267   1.410       .  A
C267        C268   1.406       .  A
C267        O272   1.373       .  S
C268        C269   1.409       .  A
C268        H273   1.083       .  S
C269        C270   1.414       .  A
C270        O274   1.371       .  S
C271        C276   1.411       .  A
C271        C280   1.407       .  A
O272        H288   0.992       .  S
O274        H285   0.992       .  S
C276        C277   1.402       .  A
C276        O281   1.371       .  S
C277        C278   1.402       .  A
C277        H282   1.083       .  S
C278        C279   1.405       .  A
C279        C280   1.403       .  A
C279        O283   1.371       .  S
C280        H284   1.083       .  S
O281        H286   0.992       .  S
O283        H287   0.993       .  S
C289        C290   1.402       .  A
C289        C294   1.402       .  A
C289        H299   1.083       .  S
C290        C295   1.480       .  S
C290        C291   1.409       .  A
C291        C292   1.400       .  A
C291        O296   1.372       .  S
C292        C293   1.401       .  A
C292        H297   1.083       .  S
C293        C294   1.406       .  A
C294        O298   1.372       .  S
C295        C300   1.406       .  A
C295        C304   1.403       .  A
O296        H312   0.992       .  S
O298        H309   0.992       .  S
C300        C301   1.396       .  A
C300        O305   1.372       .  S
C301        C302   1.407       .  A
C301        H306   1.083       .  S
C302        C303   1.414       .  A
C303        C304   1.403       .  A
C303        O307   1.372       .  S
C304        H308   1.084       .  S
O305        H310   0.992       .  S
O307        H311   0.992       .  S
C313        C314   1.407       .  A
C313        C318   1.400       .  A
C313        H323   1.083       .  S
C314        C319   1.486       .  S
C314        C315   1.410       .  A
C315        C316   1.399       .  A
C315        O320   1.372       .  S
C316        C317   1.400       .  A
C316        H321   1.083       .  S
C317        C318   1.404       .  A
C318        O322   1.371       .  S
C319        C324   1.410       .  A
C319        C328   1.402       .  A
O320        H336   0.993       .  S
O322        H333   0.991       .  S
C324        C325   1.401       .  A
C324        O329   1.372       .  S
C325        C326   1.408       .  A
C325        H330   1.083       .  S
C326        C327   1.414       .  A
C327        C328   1.399       .  A
C327        O331   1.372       .  S
C328        H332   1.084       .  S
O329        H334   0.992       .  S
O331        H335   0.992       .  S
C337        C338   1.401       .  A
C337        C342   1.402       .  A
C337        H347   1.083       .  S
C338        C343   1.476       .  S
C338        C339   1.405       .  A
C339        C340   1.399       .  A
C339        O344   1.371       .  S
C340        C341   1.404       .  A
C340        H345   1.083       .  S
C341        C342   1.410       .  A
C342        O346   1.372       .  S
C343        C348   1.404       .  A
C343        C352   1.399       .  A
O344        H360   0.992       .  S
O346        H357   0.991       .  S
C348        C349   1.402       .  A
C348        O353   1.372       .  S
C349        C350   1.409       .  A
C349        H354   1.083       .  S
C350        C351   1.416       .  A
C351        C352   1.401       .  A
C351        O355   1.371       .  S
C352        H356   1.084       .  S
O353        H358   0.992       .  S
O355        H359   0.992       .  S
C361        C362   1.406       .  A
C361        C366   1.401       .  A
C361        H371   1.083       .  S
C362        C367   1.482       .  S
C362        C363   1.409       .  A
C363        C364   1.399       .  A
C363        O368   1.372       .  S
C364        C365   1.400       .  A
C364        H369   1.083       .  S
C365        C366   1.404       .  A
C366        O370   1.372       .  S
C367        C372   1.408       .  A
C367        C376   1.400       .  A
O368        H384   0.992       .  S
O370        H381   0.991       .  S
C372        C373   1.404       .  A
C372        O377   1.373       .  S
C373        C374   1.406       .  A
C373        H378   1.083       .  S
C374        C375   1.417       .  A
C375        C376   1.399       .  A
C375        O379   1.372       .  S
C376        H380   1.084       .  S
O377        H382   0.992       .  S
O379        H383   0.992       .  S
C385        C386   1.404       .  A
C385        C390   1.401       .  A
C385        H395   1.083       .  S
C386        C391   1.480       .  S
C386        C387   1.407       .  A
C387        C388   1.399       .  A
C387        O392   1.372       .  S
C388        C389   1.401       .  A
C388        H393   1.083       .  S
C389        C390   1.405       .  A
C390        O394   1.371       .  S
C391        C396   1.408       .  A
C391        C400   1.400       .  A
O392        H408   0.992       .  S
O394        H405   0.991       .  S
C396        C397   1.401       .  A
C396        O401   1.372       .  S
C397        C398   1.408       .  A
C397        H402   1.083       .  S
C398        C399   1.414       .  A
C399        C400   1.400       .  A
C399        O403   1.371       .  S
C400        H404   1.084       .  S
O401        H406   0.991       .  S
O403        H407   0.993       .  S
C409        C410   1.405       .  A
C409        C414   1.403       .  A
C409        H419   1.084       .  S
C410        C415   1.486       .  S
C410        C411   1.410       .  A
C411        C412   1.401       .  A
C411        O416   1.373       .  S
C412        C413   1.401       .  A
C412        H417   1.084       .  S
C413        C414   1.406       .  A
C414        O418   1.372       .  S
C415        C420   1.408       .  A
C415        C424   1.404       .  A
O416        H432   0.992       .  S
O418        H429   0.992       .  S
C420        C421   1.399       .  A
C420        O425   1.372       .  S
C421        C422   1.408       .  A
C421        H426   1.083       .  S
C422        C423   1.414       .  A
C423        C424   1.402       .  A
C423        O427   1.371       .  S
C424        H428   1.084       .  S
O425        H430   0.991       .  S
O427        H431   0.992       .  S
C433        C434   1.398       .  A
C433        C438   1.395       .  A
C433        H443   1.084       .  S
C434        C439   1.475       .  S
C434        C435   1.407       .  A
C435        C436   1.404       .  A
C435        O440   1.372       .  S
C436        C437   1.409       .  A
C436        H441   1.083       .  S
C437        C438   1.414       .  A
C438        O442   1.371       .  S
C439        C444   1.407       .  A
C439        C448   1.404       .  A
O440        H456   0.992       .  S
O442        H453   0.992       .  S
C444        C445   1.397       .  A
C444        O449   1.371       .  S
C445        C446   1.401       .  A
C445        H450   1.083       .  S
C446        C447   1.404       .  A
C447        C448   1.398       .  A
C447        O451   1.372       .  S
C448        H452   1.084       .  S
O449        H454   0.992       .  S
O451        H455   0.992       .  S
C457        C458   1.401       .  A
C457        C462   1.400       .  A
C457        H467   1.084       .  S
C458        C463   1.474       .  S
C458        C459   1.406       .  A
C459        C460   1.400       .  A
C459        O464   1.373       .  S
C460        C461   1.403       .  A
C460        H465   1.083       .  S
C461        C462   1.408       .  A
C462        O466   1.373       .  S
C463        C468   1.405       .  A
C463        C472   1.399       .  A
O464        H480   0.992       .  S
O466        H477   0.992       .  S
C468        C469   1.399       .  A
C468        O473   1.372       .  S
C469        C470   1.408       .  A
C469        H474   1.083       .  S
C470        C471   1.415       .  A
C471        C472   1.398       .  A
C471        O475   1.372       .  S
C472        H476   1.084       .  S
O473        H478   0.993       .  S
O475        H479   0.992       .  S
C481        C482   1.400       .  A
C481        C486   1.398       .  A
C481        H491   1.084       .  S
C482        C487   1.476       .  S
C482        C483   1.406       .  A
C483        C484   1.401       .  A
C483        O488   1.372       .  S
C484        C485   1.407       .  A
C484        H489   1.083       .  S
C485        C486   1.415       .  A
C486        O490   1.372       .  S
C487        C492   1.408       .  A
C487        C496   1.404       .  A
O488        H504   0.992       .  S
O490        H501   0.992       .  S
C492        C493   1.398       .  A
C492        O497   1.373       .  S
C493        C494   1.400       .  A
C493        H498   1.084       .  S
C494        C495   1.403       .  A
C495        C496   1.397       .  A
C495        O499   1.371       .  S
C496        H500   1.084       .  S
O497        H502   0.992       .  S
O499        H503   0.992       .  S
C505        C506   1.402       .  A
C505        C510   1.401       .  A
C505        H515   1.084       .  S
C506        C511   1.486       .  S
C506        C507   1.408       .  A
C507        C508   1.402       .  A
C507        O512   1.372       .  S
C508        C509   1.409       .  A
C508        H513   1.083       .  S
C509        C510   1.415       .  A
C510        O514   1.371       .  S
C511        C516   1.410       .  A
C511        C520   1.405       .  A
O512        H528   0.992       .  S
O514        H525   0.992       .  S
C516        C517   1.400       .  A
C516        O521   1.372       .  S
C517        C518   1.400       .  A
C517        H522   1.083       .  S
C518        C519   1.407       .  A
C519        C520   1.404       .  A
C519        O523   1.372       .  S
C520        H524   1.083       .  S
O521        H526   0.992       .  S
O523        H527   0.991       .  S
C529        C530   1.405       .  A
C529        C534   1.401       .  A
C529        H539   1.083       .  S
C530        C535   1.486       .  S
C530        C531   1.409       .  A
C531        C532   1.400       .  A
C531        O536   1.371       .  S
C532        C533   1.402       .  A
C532        H537   1.083       .  S
C533        C534   1.406       .  A
C534        O538   1.371       .  S
C535        C540   1.407       .  A
C535        C544   1.404       .  A
O536        H552   0.991       .  S
O538        H549   0.992       .  S
C540        C541   1.401       .  A
C540        O545   1.372       .  S
C541        C542   1.407       .  A
C541        H546   1.083       .  S
C542        C543   1.414       .  A
C543        C544   1.403       .  A
C543        O547   1.372       .  S
C544        H548   1.084       .  S
O545        H550   0.992       .  S
O547        H551   0.992       .  S
C553        C554   1.404       .  A
C553        C558   1.401       .  A
C553        H563   1.083       .  S
C554        C559   1.486       .  S
C554        C555   1.409       .  A
C555        C556   1.402       .  A
C555        O560   1.372       .  S
C556        C557   1.404       .  A
C556        H561   1.083       .  S
C557        C558   1.406       .  A
C558        O562   1.372       .  S
C559        C564   1.407       .  A
C559        C568   1.404       .  A
O560        H576   0.991       .  S
O562        H573   0.992       .  S
C564        C565   1.399       .  A
C564        O569   1.372       .  S
C565        C566   1.407       .  A
C565        H570   1.083       .  S
C566        C567   1.413       .  A
C567        C568   1.403       .  A
C567        O571   1.371       .  S
C568        H572   1.084       .  S
O569        H574   0.992       .  S
O571        H575   0.992       .  S
C577        C578   1.404       .  A
C577        C582   1.398       .  A
C577        H587   1.083       .  S
C578        C583   1.477       .  S
C578        C579   1.407       .  A
C579        C580   1.397       .  A
C579        O584   1.371       .  S
C580        C581   1.401       .  A
C580        H585   1.083       .  S
C581        C582   1.405       .  A
C582        O586   1.372       .  S
C583        C588   1.406       .  A
C583        C592   1.402       .  A
O584        H600   0.992       .  S
O586        H597   0.991       .  S
C588        C589   1.399       .  A
C588        O593   1.372       .  S
C589        C590   1.405       .  A
C589        H594   1.083       .  S
C590        C591   1.414       .  A
C591        C592   1.399       .  A
C591        O595   1.372       .  S
C592        H596   1.084       .  S
O593        H598   0.991       .  S
O595        H599   0.992       .  S
C601        C602   1.401       .  A
C601        C606   1.403       .  A
C601        H611   1.084       .  S
C602        C607   1.476       .  S
C602        C603   1.404       .  A
C603        C604   1.399       .  A
C603        O608   1.372       .  S
C604        C605   1.407       .  A
C604        H609   1.083       .  S
C605        C606   1.416       .  A
C606        O610   1.372       .  S
C607        C612   1.407       .  A
C607        C616   1.401       .  A
O608        H624   0.992       .  S
O610        H621   0.992       .  S
C612        C613   1.401       .  A
C612        O617   1.371       .  S
C613        C614   1.403       .  A
C613        H618   1.083       .  S
C614        C615   1.405       .  A
C615        C616   1.399       .  A
C615        O619   1.371       .  S
C616        H620   1.083       .  S
O617        H622   0.992       .  S
O619        H623   0.991       .  S
C625        C626   1.401       .  A
C625        C630   1.402       .  A
C625        H635   1.084       .  S
C626        C631   1.480       .  S
C626        C627   1.406       .  A
C627        C628   1.399       .  A
C627        O632   1.372       .  S
C628        C629   1.407       .  A
C628        H633   1.083       .  S
C629        C630   1.416       .  A
C630        O634   1.372       .  S
C631        C636   1.407       .  A
C631        C640   1.403       .  A
O632        H648   0.992       .  S
O634        H645   0.992       .  S
C636        C637   1.400       .  A
C636        O641   1.371       .  S
C637        C638   1.403       .  A
C637        H642   1.083       .  S
C638        C639   1.405       .  A
C639        C640   1.401       .  A
C639        O643   1.372       .  S
C640        H644   1.084       .  S
O641        H646   0.992       .  S
O643        H647   0.992       .  S
C649        C650   1.404       .  A
C649        C654   1.401       .  A
C649        H659   1.084       .  S
C650        C655   1.478       .  S
C650        C651   1.406       .  A
C651        C652   1.397       .  A
C651        O656   1.371       .  S
C652        C653   1.400       .  A
C652        H657   1.082       .  S
C653        C654   1.406       .  A
C654        O658   1.372       .  S
C655        C660   1.404       .  A
C655        C664   1.401       .  A
O656        H672   0.992       .  S
O658        H669   0.992       .  S
C660        C661   1.399       .  A
C660        O665   1.372       .  S
C661        C662   1.409       .  A
C661        H666   1.083       .  S
C662        C663   1.415       .  A
C663        C664   1.402       .  A
C663        O667   1.371       .  S
C664        H668   1.084       .  S
O665        H670   0.991       .  S
O667        H671   0.992       .  S
C673        C674   1.402       .  A
C673        C678   1.403       .  A
C673        H683   1.084       .  S
C674        C679   1.477       .  S
C674        C675   1.404       .  A
C675        C676   1.398       .  A
C675        O680   1.372       .  S
C676        C677   1.408       .  A
C676        H681   1.083       .  S
C677        C678   1.415       .  A
C678        O682   1.371       .  S
C679        C684   1.406       .  A
C679        C688   1.403       .  A
O680        H696   0.992       .  S
O682        H693   0.992       .  S
C684        C685   1.399       .  A
C684        O689   1.371       .  S
C685        C686   1.401       .  A
C685        H690   1.083       .  S
C686        C687   1.407       .  A
C687        C688   1.402       .  A
C687        O691   1.372       .  S
C688        H692   1.084       .  S
O689        H694   0.992       .  S
O691        H695   0.991       .  S
C697        C698   1.401       .  A
C697        C702   1.397       .  A
C697        H707   1.084       .  S
C698        C703   1.472       .  S
C698        C699   1.407       .  A
C699        C700   1.398       .  A
C699        O704   1.372       .  S
C700        C701   1.403       .  A
C700        H705   1.084       .  S
C701        C702   1.405       .  A
C702        O706   1.372       .  S
C703        C708   1.404       .  A
C703        C712   1.400       .  A
O704        H720   0.991       .  S
O706        H717   0.994       .  S
C708        C709   1.397       .  A
C708        O713   1.372       .  S
C709        C710   1.408       .  A
C709        H714   1.083       .  S
C710        C711   1.413       .  A
C711        C712   1.398       .  A
C711        O715   1.371       .  S
C712        H716   1.084       .  S
O713        H718   0.992       .  S
O715        H719   0.992       .  S
C721        C722   1.405       .  A
C721        C726   1.404       .  A
C721        H731   1.083       .  S
C722        C727   1.488       .  S
C722        C723   1.410       .  A
C723        C724   1.403       .  A
C723        O728   1.372       .  S
C724        C725   1.402       .  A
C724        H729   1.083       .  S
C725        C726   1.406       .  A
C726        O730   1.372       .  S
C727        C732   1.409       .  A
C727        C736   1.401       .  A
O728        H744   0.992       .  S
O730        H741   0.991       .  S
C732        C733   1.405       .  A
C732        O737   1.372       .  S
C733        C734   1.409       .  A
C733        H738   1.083       .  S
C734        C735   1.417       .  A
C735        C736   1.403       .  A
C735        O739   1.372       .  S
C736        H740   1.084       .  S
O737        H742   0.993       .  S
O739        H743   0.992       .  S
C745        C746   1.403       .  A
C745        C750   1.403       .  A
C745        H755   1.084       .  S
C746        C751   1.485       .  S
C746        C747   1.410       .  A
C747        C748   1.404       .  A
C747        O752   1.372       .  S
C748        C749   1.403       .  A
C748        H753   1.083       .  S
C749        C750   1.408       .  A
C750        O754   1.373       .  S
C751        C756   1.407       .  A
C751        C760   1.404       .  A
O752        H768   0.992       .  S
O754        H765   0.992       .  S
C756        C757   1.400       .  A
C756        O761   1.372       .  S
C757        C758   1.408       .  A
C757        H762   1.083       .  S
C758        C759   1.413       .  A
C759        C760   1.403       .  A
C759        O763   1.372       .  S
C760        H764   1.084       .  S
O761        H766   0.991       .  S
O763        H767   0.992       .  S
C769        C770   1.404       .  A
C769        C774   1.401       .  A
C769        H779   1.083       .  S
C770        C775   1.479       .  S
C770        C771   1.407       .  A
C771        C772   1.398       .  A
C771        O776   1.372       .  S
C772        C773   1.403       .  A
C772        H777   1.083       .  S
C773        C774   1.405       .  A
C774        O778   1.371       .  S
C775        C780   1.406       .  A
C775        C784   1.402       .  A
O776        H792   0.992       .  S
O778        H789   0.992       .  S
C780        C781   1.400       .  A
C780        O785   1.372       .  S
C781        C782   1.406       .  A
C781        H786   1.083       .  S
C782        C783   1.414       .  A
C783        C784   1.401       .  A
C783        O787   1.372       .  S
C784        H788   1.084       .  S
O785        H790   0.991       .  S
O787        H791   0.993       .  S
C793        C794   1.404       .  A
C793        C798   1.400       .  A
C793        H803   1.083       .  S
C794        C799   1.484       .  S
C794        C795   1.410       .  A
C795        C796   1.399       .  A
C795        O800   1.372       .  S
C796        C797   1.404       .  A
C796        H801   1.083       .  S
C797        C798   1.404       .  A
C798        O802   1.372       .  S
C799        C804   1.408       .  A
C799        C808   1.403       .  A
O800        H816   0.992       .  S
O802        H813   0.992       .  S
C804        C805   1.398       .  A
C804        O809   1.372       .  S
C805        C806   1.405       .  A
C805        H810   1.083       .  S
C806        C807   1.414       .  A
C807        C808   1.401       .  A
C807        O811   1.372       .  S
C808        H812   1.084       .  S
O809        H814   0.991       .  S
O811        H815   0.992       .  S
C817        C818   1.403       .  A
C817        C822   1.399       .  A
C817        H827   1.084       .  S
C818        C823   1.479       .  S
C818        C819   1.408       .  A
C819        C820   1.400       .  A
C819        O824   1.372       .  S
C820        C821   1.402       .  A
C820        H825   1.083       .  S
C821        C822   1.405       .  A
C822        O826   1.372       .  S
C823        C828   1.408       .  A
C823        C832   1.401       .  A
O824        H840   0.992       .  S
O826        H837   0.992       .  S
C828        C829   1.401       .  A
C828        O833   1.372       .  S
C829        C830   1.408       .  A
C829        H834   1.083       .  S
C830        C831   1.412       .  A
C831        C832   1.395       .  A
C831        O835   1.371       .  S
C832        H836   1.084       .  S
O833        H838   0.992       .  S
O835        H839   0.992       .  S
C841        C842   1.401       .  A
C841        C846   1.400       .  A
C841        H851   1.084       .  S
C842        C847   1.484       .  S
C842        C843   1.409       .  A
C843        C844   1.404       .  A
C843        O848   1.372       .  S
C844        C845   1.408       .  A
C844        H849   1.083       .  S
C845        C846   1.412       .  A
C846        O850   1.371       .  S
C847        C852   1.409       .  A
C847        C856   1.403       .  A
O848        H864   0.992       .  S
O850        H861   0.992       .  S
C852        C853   1.402       .  A
C852        O857   1.372       .  S
C853        C854   1.403       .  A
C853        H858   1.083       .  S
C854        C855   1.407       .  A
C855        C856   1.403       .  A
C855        O859   1.373       .  S
C856        H860   1.084       .  S
O857        H862   0.992       .  S
O859        H863   0.992       .  S
C865        C866   1.405       .  A
C865        C870   1.400       .  A
C865        H875   1.083       .  S
C866        C871   1.484       .  S
C866        C867   1.408       .  A
C867        C868   1.400       .  A
C867        O872   1.371       .  S
C868        C869   1.404       .  A
C868        H873   1.083       .  S
C869        C870   1.405       .  A
C870        O874   1.372       .  S
C871        C876   1.406       .  A
C871        C880   1.405       .  A
O872        H888   0.992       .  S
O874        H885   0.991       .  S
C876        C877   1.398       .  A
C876        O881   1.373       .  S
C877        C878   1.406       .  A
C877        H882   1.083       .  S
C878        C879   1.414       .  A
C879        C880   1.404       .  A
C879        O883   1.371       .  S
C880        H884   1.084       .  S
O881        H886   0.991       .  S
O883        H887   0.992       .  S
C889        C890   1.405       .  A
C889        C894   1.403       .  A
C889        H899   1.083       .  S
C890        C895   1.489       .  S
C890        C891   1.411       .  A
C891        C892   1.402       .  A
C891        O896   1.371       .  S
C892        C893   1.403       .  A
C892        H897   1.083       .  S
C893        C894   1.406       .  A
C894        O898   1.371       .  S
C895        C900   1.408       .  A
C895        C904   1.403       .  A
O896        H912   0.991       .  S
O898        H909   0.991       .  S
C900        C901   1.403       .  A
C900        O905   1.372       .  S
C901        C902   1.407       .  A
C901        H906   1.083       .  S
C902        C903   1.416       .  A
C903        C904   1.403       .  A
C903        O907   1.372       .  S
C904        H908   1.084       .  S
O905        H910   0.992       .  S
O907        H911   0.992       .  S
C913        C914   1.402       .  A
C913        C918   1.403       .  A
C913        H923   1.084       .  S
C914        C919   1.481       .  S
C914        C915   1.405       .  A
C915        C916   1.400       .  A
C915        O920   1.372       .  S
C916        C917   1.408       .  A
C916        H921   1.083       .  S
C917        C918   1.414       .  A
C918        O922   1.371       .  S
C919        C924   1.406       .  A
C919        C928   1.403       .  A
O920        H936   0.991       .  S
O922        H933   0.992       .  S
C924        C925   1.400       .  A
C924        O929   1.371       .  S
C925        C926   1.406       .  A
C925        H930   1.083       .  S
C926        C927   1.410       .  A
C927        C928   1.404       .  A
C927        O931   1.373       .  S
C928        H932   1.084       .  S
O929        H934   0.992       .  S
O931        H935   0.992       .  S
C937        C938   1.401       .  A
C937        C942   1.397       .  A
C937        H947   1.084       .  S
C938        C943   1.474       .  S
C938        C939   1.404       .  A
C939        C940   1.398       .  A
C939        O944   1.372       .  S
C940        C941   1.408       .  A
C940        H945   1.083       .  S
C941        C942   1.413       .  A
C942        O946   1.371       .  S
C943        C948   1.408       .  A
C943        C952   1.402       .  A
O944        H960   0.992       .  S
O946        H957   0.992       .  S
C948        C949   1.399       .  A
C948        O953   1.372       .  S
C949        C950   1.401       .  A
C949        H954   1.083       .  S
C950        C951   1.404       .  A
C951        C952   1.396       .  A
C951        O955   1.371       .  S
C952        H956   1.084       .  S
O953        H958   0.992       .  S
O955        H959   0.991       .  S
C961        C962   1.402       .  A
C961        C966   1.397       .  A
C961        H971   1.084       .  S
C962        C967   1.478       .  S
C962        C963   1.408       .  A
C963        C964   1.398       .  A
C963        O968   1.372       .  S
C964        C965   1.406       .  A
C964        H969   1.083       .  S
C965        C966   1.412       .  A
C966        O970   1.371       .  S
C967        C972   1.409       .  A
C967        C976   1.404       .  A
O968        H984   0.992       .  S
O970        H981   0.992       .  S
C972        C973   1.395       .  A
C972        O977   1.372       .  S
C973        C974   1.400       .  A
C973        H978   1.083       .  S
C974        C975   1.405       .  A
C975        C976   1.397       .  A
C975        O979   1.371       .  S
C976        H980   1.083       .  S
O977        H982   0.992       .  S
O979        H983   0.992       .  S
C985        C986   1.400       .  A
C985        C990   1.399       .  A
C985        H995   1.084       .  S
C986        C991   1.478       .  S
C986        C987   1.407       .  A
C987        C988   1.400       .  A
C987        O992   1.372       .  S
C988        C989   1.408       .  A
C988        H993   1.083       .  S
C989        C990   1.414       .  A
C990        O994   1.372       .  S
C991        C996   1.408       .  A
C991       C1000   1.402       .  A
O992       H1008   0.992       .  S
O994       H1005   0.992       .  S
C996        C997   1.400       .  A
C996       O1001   1.372       .  S
C997        C998   1.402       .  A
C997       H1002   1.083       .  S
C998        C999   1.406       .  A
C999       C1000   1.400       .  A
C999       O1003   1.372       .  S
C1000      H1004   1.084       .  S
O1001      H1006   0.992       .  S
O1003      H1007   0.992       .  S
C1009      C1010   1.403       .  A
C1009      C1014   1.402       .  A
C1009      H1019   1.084       .  S
C1010      C1015   1.481       .  S
C1010      C1011   1.406       .  A
C1011      C1012   1.399       .  A
C1011      O1016   1.372       .  S
C1012      C1013   1.406       .  A
C1012      H1017   1.083       .  S
C1013      C1014   1.414       .  A
C1014      O1018   1.372       .  S
C1015      C1020   1.409       .  A
C1015      C1024   1.404       .  A
O1016      H1032   0.992       .  S
O1018      H1029   0.992       .  S
C1020      C1021   1.399       .  A
C1020      O1025   1.371       .  S
C1021      C1022   1.402       .  A
C1021      H1026   1.084       .  S
C1022      C1023   1.404       .  A
C1023      C1024   1.399       .  A
C1023      O1027   1.372       .  S
C1024      H1028   1.083       .  S
O1025      H1030   0.992       .  S
O1027      H1031   0.992       .  S
C1033      C1034   1.404       .  A
C1033      C1038   1.409       .  A
C1033      H1043   1.084       .  S
C1034      C1039   1.484       .  S
C1034      C1035   1.405       .  A
C1035      C1036   1.397       .  A
C1035      O1040   1.370       .  S
C1036      C1037   1.405       .  A
C1036      H1041   1.083       .  S
C1037      C1038   1.417       .  A
C1038      O1042   1.372       .  S
C1039      C1044   1.408       .  A
C1039      C1048   1.404       .  A
O1040      H1056   0.991       .  S
O1042      H1053   0.992       .  S
C1044      C1045   1.405       .  A
C1044      O1049   1.371       .  S
C1045      C1046   1.404       .  A
C1045      H1050   1.083       .  S
C1046      C1047   1.405       .  A
C1047      C1048   1.401       .  A
C1047      O1051   1.371       .  S
C1048      H1052   1.083       .  S
O1049      H1054   0.992       .  S
O1051      H1055   0.991       .  S
C1057      C1058   1.401       .  A
C1057      C1062   1.398       .  A
C1057      H1067   1.084       .  S
C1058      C1063   1.477       .  S
C1058      C1059   1.406       .  A
C1059      C1060   1.398       .  A
C1059      O1064   1.372       .  S
C1060      C1061   1.407       .  A
C1060      H1065   1.083       .  S
C1061      C1062   1.413       .  A
C1062      O1066   1.371       .  S
C1063      C1068   1.408       .  A
C1063      C1072   1.402       .  A
O1064      H1080   0.992       .  S
O1066      H1077   0.992       .  S
C1068      C1069   1.398       .  A
C1068      O1073   1.372       .  S
C1069      C1070   1.402       .  A
C1069      H1074   1.083       .  S
C1070      C1071   1.406       .  A
C1071      C1072   1.400       .  A
C1071      O1075   1.372       .  S
C1072      H1076   1.084       .  S
O1073      H1078   0.993       .  S
O1075      H1079   0.991       .  S
C1081      C1082   1.404       .  A
C1081      C1086   1.401       .  A
C1081      H1091   1.083       .  S
C1082      C1087   1.480       .  S
C1082      C1083   1.409       .  A
C1083      C1084   1.397       .  A
C1083      O1088   1.371       .  S
C1084      C1085   1.401       .  A
C1084      H1089   1.084       .  S
C1085      C1086   1.406       .  A
C1086      O1090   1.371       .  S
C1087      C1092   1.407       .  A
C1087      C1096   1.399       .  A
O1088      H1104   0.991       .  S
O1090      H1101   0.992       .  S
C1092      C1093   1.404       .  A
C1092      O1097   1.372       .  S
C1093      C1094   1.409       .  A
C1093      H1098   1.083       .  S
C1094      C1095   1.416       .  A
C1095      C1096   1.397       .  A
C1095      O1099   1.371       .  S
C1096      H1100   1.084       .  S
O1097      H1102   0.992       .  S
O1099      H1103   0.992       .  S
C1105      C1106   1.404       .  A
C1105      C1110   1.403       .  A
C1105      H1115   1.084       .  S
C1106      C1111   1.479       .  S
C1106      C1107   1.407       .  A
C1107      C1108   1.398       .  A
C1107      O1112   1.372       .  S
C1108      C1109   1.399       .  A
C1108      H1113   1.083       .  S
C1109      C1110   1.406       .  A
C1110      O1114   1.372       .  S
C1111      C1116   1.406       .  A
C1111      C1120   1.399       .  A
O1112      H1128   0.992       .  S
O1114      H1125   0.991       .  S
C1116      C1117   1.401       .  A
C1116      O1121   1.371       .  S
C1117      C1118   1.407       .  A
C1117      H1122   1.083       .  S
C1118      C1119   1.416       .  A
C1119      C1120   1.400       .  A
C1119      O1123   1.371       .  S
C1120      H1124   1.084       .  S
O1121      H1126   0.991       .  S
O1123      H1127   0.992       .  S
C1129      C1130   1.403       .  A
C1129      C1134   1.400       .  A
C1129      H1139   1.084       .  S
C1130      C1135   1.474       .  S
C1130      C1131   1.406       .  A
C1131      C1132   1.396       .  A
C1131      O1136   1.372       .  S
C1132      C1133   1.399       .  A
C1132      H1137   1.084       .  S
C1133      C1134   1.406       .  A
C1134      O1138   1.372       .  S
C1135      C1140   1.405       .  A
C1135      C1144   1.400       .  A
O1136      H1152   0.992       .  S
O1138      H1149   0.992       .  S
C1140      C1141   1.396       .  A
C1140      O1145   1.372       .  S
C1141      C1142   1.405       .  A
C1141      H1146   1.083       .  S
C1142      C1143   1.416       .  A
C1143      C1144   1.400       .  A
C1143      O1147   1.372       .  S
C1144      H1148   1.084       .  S
O1145      H1150   0.992       .  S
O1147      H1151   0.992       .  S
C1153      C1154   1.403       .  A
C1153      C1158   1.400       .  A
C1153      H1163   1.083       .  S
C1154      C1159   1.481       .  S
C1154      C1155   1.407       .  A
C1155      C1156   1.397       .  A
C1155      O1160   1.372       .  S
C1156      C1157   1.408       .  A
C1156      H1161   1.083       .  S
C1157      C1158   1.413       .  A
C1158      O1162   1.371       .  S
C1159      C1164   1.409       .  A
C1159      C1168   1.405       .  A
O1160      H1176   0.992       .  S
O1162      H1173   0.992       .  S
C1164      C1165   1.397       .  A
C1164      O1169   1.372       .  S
C1165      C1166   1.400       .  A
C1165      H1170   1.083       .  S
C1166      C1167   1.403       .  A
C1167      C1168   1.398       .  A
C1167      O1171   1.372       .  S
C1168      H1172   1.083       .  S
O1169      H1174   0.992       .  S
O1171      H1175   0.999       .  S
C1177      C1178   1.401       .  A
C1177      C1182   1.401       .  A
C1177      H1187   1.084       .  S
C1178      C1183   1.478       .  S
C1178      C1179   1.405       .  A
C1179      C1180   1.399       .  A
C1179      O1184   1.372       .  S
C1180      C1181   1.408       .  A
C1180      H1185   1.083       .  S
C1181      C1182   1.415       .  A
C1182      O1186   1.371       .  S
C1183      C1188   1.407       .  A
C1183      C1192   1.404       .  A
O1184      H1200   0.992       .  S
O1186      H1197   0.992       .  S
C1188      C1189   1.398       .  A
C1188      O1193   1.371       .  S
C1189      C1190   1.401       .  A
C1189      H1194   1.084       .  S
C1190      C1191   1.405       .  A
C1191      C1192   1.400       .  A
C1191      O1195   1.372       .  S
C1192      H1196   1.084       .  S
O1193      H1198   0.992       .  S
O1195      H1199   0.989       .  S
C1201      C1202   1.403       .  A
C1201      C1206   1.399       .  A
C1201      H1211   1.083       .  S
C1202      C1207   1.477       .  S
C1202      C1203   1.409       .  A
C1203      C1204   1.396       .  A
C1203      O1208   1.372       .  S
C1204      C1205   1.400       .  A
C1204      H1209   1.083       .  S
C1205      C1206   1.405       .  A
C1206      O1210   1.372       .  S
C1207      C1212   1.406       .  A
C1207      C1216   1.402       .  A
O1208      H1224   0.992       .  S
O1210      H1221   0.992       .  S
C1212      C1213   1.398       .  A
C1212      O1217   1.373       .  S
C1213      C1214   1.407       .  A
C1213      H1218   1.083       .  S
C1214      C1215   1.412       .  A
C1215      C1216   1.398       .  A
C1215      O1219   1.371       .  S
C1216      H1220   1.084       .  S
O1217      H1222   0.991       .  S
O1219      H1223   0.992       .  S
C1225      C1226   1.406       .  A
C1225      C1230   1.405       .  A
C1225      H1235   1.083       .  S
C1226      C1231   1.486       .  S
C1226      C1227   1.408       .  A
C1227      C1228   1.400       .  A
C1227      O1232   1.371       .  S
C1228      C1229   1.401       .  A
C1228      H1233   1.083       .  S
C1229      C1230   1.407       .  A
C1230      O1234   1.371       .  S
C1231      C1236   1.408       .  A
C1231      C1240   1.401       .  A
O1232      H1248   0.992       .  S
O1234      H1245   0.993       .  S
C1236      C1237   1.404       .  A
C1236      O1241   1.372       .  S
C1237      C1238   1.408       .  A
C1237      H1242   1.083       .  S
C1238      C1239   1.417       .  A
C1239      C1240   1.404       .  A
C1239      O1243   1.372       .  S
C1240      H1244   1.084       .  S
O1241      H1246   0.991       .  S
O1243      H1247   0.992       .  S
C1249      C1250   1.403       .  A
C1249      C1254   1.398       .  A
C1249      H1259   1.084       .  S
C1250      C1255   1.474       .  S
C1250      C1251   1.406       .  A
C1251      C1252   1.397       .  A
C1251      O1256   1.372       .  S
C1252      C1253   1.400       .  A
C1252      H1257   1.082       .  S
C1253      C1254   1.406       .  A
C1254      O1258   1.372       .  S
C1255      C1260   1.406       .  A
C1255      C1264   1.399       .  A
O1256      H1272   0.992       .  S
O1258      H1269   0.992       .  S
C1260      C1261   1.398       .  A
C1260      O1265   1.372       .  S
C1261      C1262   1.408       .  A
C1261      H1266   1.083       .  S
C1262      C1263   1.414       .  A
C1263      C1264   1.397       .  A
C1263      O1267   1.371       .  S
C1264      H1268   1.084       .  S
O1265      H1270   0.992       .  S
O1267      H1271   0.992       .  S
C1273      C1274   1.400       .  A
C1273      C1278   1.400       .  A
C1273      H1283   1.084       .  S
C1274      C1279   1.480       .  S
C1274      C1275   1.407       .  A
C1275      C1276   1.402       .  A
C1275      O1280   1.372       .  S
C1276      C1277   1.408       .  A
C1276      H1281   1.083       .  S
C1277      C1278   1.415       .  A
C1278      O1282   1.372       .  S
C1279      C1284   1.409       .  A
C1279      C1288   1.403       .  A
O1280      H1296   0.992       .  S
O1282      H1293   0.992       .  S
C1284      C1285   1.400       .  A
C1284      O1289   1.371       .  S
C1285      C1286   1.403       .  A
C1285      H1290   1.083       .  S
C1286      C1287   1.407       .  A
C1287      C1288   1.399       .  A
C1287      O1291   1.371       .  S
C1288      H1292   1.083       .  S
O1289      H1294   0.993       .  S
O1291      H1295   0.991       .  S
C1297      C1298   1.401       .  A
C1297      C1302   1.400       .  A
C1297      H1307   1.084       .  S
C1298      C1303   1.475       .  S
C1298      C1299   1.405       .  A
C1299      C1300   1.399       .  A
C1299      O1304   1.371       .  S
C1300      C1301   1.403       .  A
C1300      H1305   1.083       .  S
C1301      C1302   1.409       .  A
C1302      O1306   1.371       .  S
C1303      C1308   1.406       .  A
C1303      C1312   1.399       .  A
O1304      H1320   0.993       .  S
O1306      H1317   0.991       .  S
C1308      C1309   1.402       .  A
C1308      O1313   1.372       .  S
C1309      C1310   1.406       .  A
C1309      H1314   1.083       .  S
C1310      C1311   1.413       .  A
C1311      C1312   1.398       .  A
C1311      O1315   1.372       .  S
C1312      H1316   1.084       .  S
O1313      H1318   0.991       .  S
O1315      H1319   0.992       .  S
C1321      C1322   1.401       .  A
C1321      C1326   1.399       .  A
C1321      H1331   1.084       .  S
C1322      C1327   1.478       .  S
C1322      C1323   1.407       .  A
C1323      C1324   1.401       .  A
C1323      O1328   1.372       .  S
C1324      C1325   1.406       .  A
C1324      H1329   1.084       .  S
C1325      C1326   1.411       .  A
C1326      O1330   1.372       .  S
C1327      C1332   1.408       .  A
C1327      C1336   1.403       .  A
O1328      H1344   0.991       .  S
O1330      H1341   0.992       .  S
C1332      C1333   1.399       .  A
C1332      O1337   1.371       .  S
C1333      C1334   1.403       .  A
C1333      H1338   1.083       .  S
C1334      C1335   1.406       .  A
C1335      C1336   1.400       .  A
C1335      O1339   1.373       .  S
C1336      H1340   1.084       .  S
O1337      H1342   0.991       .  S
O1339      H1343   0.992       .  S
C1345      C1346   1.400       .  A
C1345      C1350   1.398       .  A
C1345      H1355   1.084       .  S
C1346      C1351   1.475       .  S
C1346      C1347   1.405       .  A
C1347      C1348   1.400       .  A
C1347      O1352   1.373       .  S
C1348      C1349   1.408       .  A
C1348      H1353   1.083       .  S
C1349      C1350   1.414       .  A
C1350      O1354   1.371       .  S
C1351      C1356   1.408       .  A
C1351      C1360   1.403       .  A
O1352      H1368   0.992       .  S
O1354      H1365   0.992       .  S
C1356      C1357   1.396       .  A
C1356      O1361   1.371       .  S
C1357      C1358   1.399       .  A
C1357      H1362   1.083       .  S
C1358      C1359   1.406       .  A
C1359      C1360   1.399       .  A
C1359      O1363   1.372       .  S
C1360      H1364   1.084       .  S
O1361      H1366   0.992       .  S
O1363      H1367   0.992       .  S
