geometry optimzed in LAMMPS
_audit_creation_date              2020-11-30 
_audit_creation_method            'lammps2cif' 
_symmetry_space_group_name_H-M    'P1' 
_symmetry_Int_Tables_number       1 
_symmetry_cell_setting            triclinic 
loop_ 
_symmetry_equiv_pos_as_xyz 
  x,y,z 
_cell_length_a                    29.23580143 
_cell_length_b                    29.234879998761752 
_cell_length_c                    24.705031186278557 
_cell_angle_alpha                 90.07135327724166 
_cell_angle_beta                  89.93081944636428 
_cell_angle_gamma                 120.09203127437063 
loop_ 
_atom_site_label 
_atom_site_type_symbol 
_atom_site_fract_x 
_atom_site_fract_y 
_atom_site_fract_z 
_atom_site_charge 
O1          O  0.55259607  0.59199297  0.43563209    -0.83100
O2          O  0.59349169  0.64851763  0.33917056    -0.80100
C3          C  0.55498129  0.61582767  0.31163962     1.00400
O4          O  0.51013891  0.60975850  0.32131415    -0.80200
O5          O  0.42846867  0.61403310  0.37087292    -0.82800
C6          C  0.40553111  0.59399645  0.41515528     1.04900
O7          O  0.42934782  0.60746884  0.45980955    -0.75600
O8          O  0.51357229  0.60683190  0.50563362    -0.75700
C9          C  0.52407262  0.57649128  0.47770593     1.04900
O10         O  0.61192108  0.68534600  0.49400937    -0.83100
O11         O  0.62767344  0.74188098  0.39758245    -0.80100
C12         C  0.61465743  0.75736664  0.35558183     1.00400
O13         O  0.57382122  0.72696268  0.32765420    -0.80200
O14         O  0.48890314  0.72630046  0.37363569    -0.82800
C15         C  0.47851949  0.73975149  0.41831487     1.04900
O16         O  0.48138711  0.71974497  0.46258461    -0.75600
O17         O  0.56734802  0.72401723  0.51206292    -0.75700
C18         C  0.60608013  0.71792116  0.52168771     1.04800
Cr19       Cr  0.59130192  0.66693673  0.41659954     1.93700
Cr20       Cr  0.50278787  0.66887441  0.35334083     1.93200
Cr21       Cr  0.50076490  0.66491643  0.48004256     1.39100
O22         O  0.53037768  0.66690967  0.41666562    -1.20800
O23         O  0.58430754  0.56034498  0.06450691    -0.83100
O24         O  0.64082588  0.60123541  0.16097187    -0.80100
C25         C  0.60813382  0.56271874  0.18849302     1.00400
O26         O  0.60207299  0.51787856  0.17881548    -0.80200
O27         O  0.60636703  0.43621999  0.12926460    -0.82800
C28         C  0.58631190  0.41328119  0.08498759     1.04900
O29         O  0.59976980  0.43709353  0.04033169    -0.75600
O30         O  0.59914230  0.52131975  0.99450285    -0.75700
C31         C  0.56880319  0.53181835  0.02243316     1.04900
O32         O  0.67765779  0.61966955  0.00613414    -0.83100
O33         O  0.73419220  0.63542506  0.10256223    -0.80100
C34         C  0.74967572  0.62240672  0.14456260     1.00400
O35         O  0.71926876  0.58157603  0.17249129    -0.80200
O36         O  0.71862772  0.49666988  0.12650074    -0.82800
C37         C  0.73206388  0.48626787  0.08182305     1.04900
O38         O  0.71204446  0.48911957  0.03755431    -0.75600
O39         O  0.71632002  0.57508773  0.98807263    -0.75700
C40         C  0.71022466  0.61382198  0.97845068     1.04800
Cr41       Cr  0.65924925  0.59905215  0.08354240     1.93700
Cr42       Cr  0.66119509  0.51054071  0.14679620     1.93200
Cr43       Cr  0.65722159  0.50850667  0.02009515     1.39100
O44         O  0.65922347  0.53812674  0.08347228    -1.20800
O45         O  0.69033708  0.77294585  0.76923747    -0.83100
O46         O  0.70600958  0.73221706  0.67267126    -0.80100
C47         C  0.71201816  0.77073672  0.64511598     1.00400
O48         O  0.75090256  0.81558763  0.65478116    -0.80200
O49         O  0.83710361  0.89725889  0.70429102    -0.82800
C50         C  0.83964219  0.92014965  0.74851691     1.04900
O51         O  0.82889354  0.89630479  0.79316308    -0.75600
O52         O  0.74415647  0.81188985  0.83922182    -0.75700
C53         C  0.70341714  0.80153958  0.81126594     1.04900
O54         O  0.72448888  0.71374520  0.82747019    -0.83100
O55         O  0.76520839  0.69806527  0.73090496    -0.80100
C56         C  0.79380277  0.71114272  0.68887968     1.00400
O57         O  0.80415491  0.75188278  0.66092307    -0.80200
O58         O  0.88856809  0.83662387  0.70698650    -0.82800
C59         C  0.91241024  0.84736915  0.75163545     1.10300
O60         O  0.88952108  0.84483539  0.79585820    -0.75600
O61         O  0.80785869  0.75863619  0.84535550    -0.75700
C62         C  0.76301027  0.71975227  0.85502132     1.04800
Cr63       Cr  0.72660198  0.73433478  0.75007076     1.93700
Cr64       Cr  0.81732555  0.82289863  0.68672463     1.93200
Cr65       Cr  0.81516697  0.82506005  0.81341973     1.39100
O66         O  0.78759828  0.79533191  0.75007130    -1.20800
O67         O  0.26594980  0.41906174  0.82766409    -0.83100
O68         O  0.26659292  0.50397567  0.87364151    -0.80100
C69         C  0.25314554  0.51436864  0.91831761     1.00400
O70         O  0.27315589  0.51151066  0.96258947    -0.80200
O71         O  0.26889062  0.42555144  0.01207498    -0.82800
C72         C  0.27499276  0.38682275  0.02170384     1.04900
O73         O  0.30756789  0.38098203  0.99402739    -0.75600
O74         O  0.25103450  0.36521601  0.89759528    -0.75700
C75         C  0.23554621  0.37823051  0.85559540     1.04900
O76         O  0.38314781  0.48276110  0.82133487    -0.83100
O77         O  0.37885531  0.56442564  0.87088696    -0.80100
C78         C  0.39889523  0.58736684  0.91516832     1.00400
O79         O  0.38542877  0.56355381  0.95982323    -0.80200
O80         O  0.38607176  0.47933669  0.00565531    -0.82800
C81         C  0.41641684  0.46884293  0.97772918     1.04900
O82         O  0.40091824  0.44031396  0.93565647    -0.75600
O83         O  0.34440104  0.39940698  0.83918997    -0.75700
C84         C  0.37708571  0.43791980  0.81165981     1.04800
Cr85       Cr  0.32402592  0.49010167  0.85335389     1.93700
Cr86       Cr  0.32798563  0.49213644  0.98005585     1.93200
Cr87       Cr  0.32597718  0.40159698  0.91661776     1.39100
O88         O  0.32599542  0.46251865  0.91668067    -1.20800
O89         O  0.41133168  0.27363960  0.67249040    -0.83100
O90         O  0.49624096  0.27427524  0.62651488    -0.80100
C91         C  0.50663854  0.26083134  0.58183877     1.00400
O92         O  0.50378168  0.28084391  0.53756848    -0.80200
O93         O  0.41782026  0.27657461  0.48808365    -0.82800
C94         C  0.37909169  0.28267633  0.47845618     1.04900
O95         O  0.37325678  0.31525891  0.50612840    -0.75600
O96         O  0.35748517  0.25873017  0.60255953    -0.75700
C97         C  0.37049481  0.24324163  0.64456213     1.04900
O98         O  0.47503565  0.39083909  0.67882740    -0.83100
O99         O  0.55669130  0.38654154  0.62927807    -0.80100
C100        C  0.57963116  0.40658672  0.58499987     1.00400
O101        O  0.55581982  0.39312051  0.54034245    -0.80200
O102        O  0.47160530  0.39375959  0.49450215    -0.82800
C103        C  0.46111556  0.42410917  0.52242688     1.04900
O104        O  0.43259272  0.40861549  0.56450115    -0.75600
O105        O  0.39168510  0.35210242  0.66096507    -0.75700
C106        C  0.43019867  0.38478464  0.68849840     1.04800
Cr107      Cr  0.48237026  0.33171266  0.64680524     1.93700
Cr108      Cr  0.48440519  0.33567334  0.52010376     1.93200
Cr109      Cr  0.39387252  0.33367324  0.58353793     1.39100
O110        O  0.45478901  0.33368471  0.58347776    -1.20800
O111        O  0.18101375  0.24872960  0.33923647    -0.83100
O112        O  0.09660639  0.16399797  0.29315867    -0.80100
C113        C  0.07276662  0.15325940  0.24850898     1.00400
O114        O  0.09565876  0.15580101  0.20428482    -0.80200
O115        O  0.17733330  0.24200501  0.15479314    -0.82800
C116        C  0.22218385  0.28089017  0.14513571     1.04900
O117        O  0.26069930  0.28689771  0.17269756    -0.75600
O118        O  0.21995936  0.30255718  0.26926173    -0.75700
C119        C  0.19136145  0.28947057  0.31128485     1.04900
O120        O  0.23426553  0.18502423  0.34536462    -0.83100
O121        O  0.14807085  0.10336548  0.29584924    -0.80100
C122        C  0.14553716  0.08047928  0.25162304     1.00400
O123        O  0.15628472  0.10432641  0.20697795    -0.80200
O124        O  0.24103129  0.18874668  0.16093540    -0.82800
C125        C  0.28177069  0.19910125  0.18889439     1.04900
O126        O  0.29484389  0.22769125  0.23092533    -0.75600
O127        O  0.27915345  0.26839895  0.32749550    -0.75700
C128        C  0.27314755  0.22987362  0.35503870     1.04800
Cr129      Cr  0.16784590  0.17771999  0.31342304     1.93700
Cr130      Cr  0.17001639  0.17557569  0.18672771     1.93200
Cr131      Cr  0.25857265  0.26629508  0.25009408     1.39100
O132        O  0.19757798  0.20529632  0.25008072    -1.20800
O133        O  0.35705368  0.10632134  0.10258551    -0.83100
O134        O  0.37270446  0.06554894  0.00601835    -0.80100
C135        C  0.37868994  0.10405681  0.97846176     1.00400
O136        O  0.41755544  0.14891574  0.98812958    -0.80200
O137        O  0.50370515  0.23061146  0.03762546    -0.82800
C138        C  0.50634237  0.25351179  0.08187059     1.04900
O139        O  0.49570485  0.22968191  0.12652151    -0.75600
O140        O  0.41090184  0.14529537  0.17255168    -0.75700
C141        C  0.37015096  0.13493173  0.14460504     1.04900
O142        O  0.39116701  0.04710793  0.16081719    -0.83100
O143        O  0.43191870  0.03143644  0.06424773    -0.80100
C144        C  0.46052285  0.04452599  0.02222638     1.00400
O145        O  0.47088519  0.08527428  0.99427574    -0.80200
O146        O  0.55528142  0.17008581  0.04029272    -0.82800
C147        C  0.57911790  0.18073078  0.08494133     1.04900
O148        O  0.55622497  0.17809994  0.12918824    -0.75600
O149        O  0.47453447  0.09195628  0.17869728    -0.75700
C150        C  0.42967675  0.05309311  0.18837027     1.04800
Cr151      Cr  0.39330690  0.06769953  0.08341679     1.93700
Cr152      Cr  0.48400245  0.15627741  0.02006063     1.93200
Cr153      Cr  0.48189665  0.15840325  0.14676035     1.39100
O154        O  0.45430428  0.12869544  0.08341246    -1.20800
O155        O  0.21924065  0.92532808  0.76897157    -0.83100
O156        O  0.26014699  0.98186615  0.67250697    -0.80100
C157        C  0.22163982  0.94916506  0.64498243     1.00400
O158        O  0.17679407  0.94308143  0.65466334    -0.80200
O159        O  0.09511846  0.94731167  0.70422716    -0.82800
C160        C  0.07217776  0.92733058  0.74852119     1.04900
O161        O  0.09598774  0.94086011  0.79317693    -0.75600
O162        O  0.18020082  0.94016171  0.83896808    -0.75700
C163        C  0.19071166  0.90982598  0.81104321     1.04900
O164        O  0.27857793  0.01866276  0.82734579    -0.83100
O165        O  0.29430972  0.07521473  0.73092118    -0.80100
C166        C  0.28127912  0.09069757  0.68892707     1.00400
O167        O  0.24043744  0.06029260  0.66100597    -0.80200
O168        O  0.15548641  0.05957935  0.70697955    -0.82800
C169        C  0.14517497  0.07309125  0.75166227     1.04900
O170        O  0.14810415  0.05313901  0.79594277    -0.75600
O171        O  0.23402886  0.05735332  0.84541033    -0.75700
C172        C  0.27274984  0.05124018  0.85503146     1.04800
Cr173      Cr  0.25794780  0.00027069  0.74993784     1.93700
Cr174      Cr  0.16941708  0.00218141  0.68669026     1.93200
Cr175      Cr  0.16742958  0.99827468  0.81339429     1.39100
O176        O  0.19702312  0.00024226  0.75001285    -1.20800
O177        O  0.25096223  0.89365833  0.39785914    -0.83100
O178        O  0.30749111  0.93455383  0.49432887    -0.80100
C179        C  0.27478913  0.89604169  0.52184572     1.00400
O180        O  0.26871101  0.85119666  0.51216197    -0.80200
O181        O  0.27295344  0.76952507  0.46259933    -0.82800
C182        C  0.25295483  0.74658557  0.41830812     1.04900
O183        O  0.26646873  0.77039689  0.37365357    -0.75600
O184        O  0.26579303  0.85462020  0.32785885    -0.75700
C185        C  0.23545880  0.86512934  0.35578559     1.04900
O186        O  0.34430035  0.95299379  0.33949259    -0.83100
O187        O  0.40084322  0.96872210  0.43592150    -0.80100
C188        C  0.41632254  0.95568931  0.47791628     1.00400
O189        O  0.38591501  0.91484933  0.50583468    -0.80200
O190        O  0.38521580  0.82990580  0.45984910    -0.82800
C191        C  0.39870774  0.81957173  0.41516686     1.04900
O192        O  0.37874335  0.82248863  0.37088872    -0.75600
O193        O  0.38297581  0.90842988  0.32142134    -0.75700
C194        C  0.37686969  0.94715716  0.31180359     1.04800
Cr195      Cr  0.32590213  0.93236178  0.41689853     1.93700
Cr196      Cr  0.32781394  0.84382738  0.48013992     1.93200
Cr197      Cr  0.32389312  0.84183375  0.35343631     1.39100
O198        O  0.32587063  0.87143336  0.41681907    -1.20800
O199        O  0.57431903  0.85538189  0.82760728    -0.83100
O200        O  0.48955933  0.77098007  0.87365787    -0.80100
C201        C  0.47885422  0.74714110  0.91830587     1.00400
O202        O  0.48142934  0.77003507  0.96253928    -0.80200
O203        O  0.56761220  0.85171489  0.01204184    -0.82800
C204        C  0.60649164  0.89656801  0.02170582     1.04900
O205        O  0.61249139  0.93508350  0.99415096    -0.75600
O206        O  0.62815033  0.89433267  0.89758485    -0.75700
C207        C  0.61506132  0.86573283  0.85555943     1.04900
O208        O  0.51064626  0.90867032  0.82147294    -0.83100
O209        O  0.42897429  0.82249286  0.87097396    -0.80100
C210        C  0.40608411  0.81992293  0.91520550     1.00400
O211        O  0.42992384  0.83063077  0.95985459    -0.80200
O212        O  0.51433314  0.91539847  0.00589815    -0.82800
C213        C  0.52469245  0.95614284  0.97794420     1.04900
O214        O  0.55328973  0.96922315  0.93591987    -0.75600
O215        O  0.59401611  0.95353993  0.83935319    -0.75700
C216        C  0.55549925  0.94754423  0.81180361     1.04800
Cr217      Cr  0.50331668  0.84223714  0.85340767     1.93700
Cr218      Cr  0.50118013  0.84438616  0.98010445     1.93200
Cr219      Cr  0.59189411  0.93295206  0.91675262     1.39100
O220        O  0.53089573  0.87195737  0.91675543    -1.20800
O221        O  0.74472502  0.94031819  0.33915291    -0.83100
O222        O  0.82966626  0.94101430  0.29317743    -0.80100
C223        C  0.84001126  0.92753064  0.24849632     1.00400
O224        O  0.83710613  0.94750533  0.20422064    -0.80200
O225        O  0.75116216  0.94326634  0.15475050    -0.82800
C226        C  0.71243855  0.94937583  0.14512749     1.04900
O227        O  0.70660810  0.98195447  0.17280990    -0.75600
O228        O  0.69086108  0.92540599  0.26923383    -0.75700
C229        C  0.70388358  0.90991761  0.31122891     1.04900
O230        O  0.80838602  0.05752744  0.34550345    -0.83100
O231        O  0.89006036  0.05328286  0.29593632    -0.80100
C232        C  0.91299821  0.07328882  0.25164646     1.00400
O233        O  0.88918507  0.05978236  0.20699195    -0.80200
O234        O  0.80496973  0.06045582  0.16118794    -0.82800
C235        C  0.79446880  0.09079616  0.18911666     1.04900
O236        O  0.76594275  0.07529484  0.23118967    -0.75600
O237        O  0.72503427  0.01875881  0.32765113    -0.75700
C238        C  0.76354199  0.05145047  0.35518265     1.04800
Cr239      Cr  0.81575262  0.99842247  0.31347118     1.93700
Cr240      Cr  0.81775549  0.00235373  0.18676807     1.93200
Cr241      Cr  0.72723159  0.00035091  0.25021976     1.39100
O242        O  0.78815418  0.00037491  0.25014822    -1.20800
O243        O  0.59926440  0.08570613  0.49434940    -0.83100
O244        O  0.59990722  0.17062316  0.54032251    -0.80100
C245        C  0.58646507  0.18102154  0.58499915     1.00400
O246        O  0.60648119  0.17816900  0.62926912    -0.80200
O247        O  0.60221797  0.09221406  0.67875700    -0.82800
C248        C  0.60831684  0.05348335  0.68838474     1.04900
O249        O  0.64089325  0.04764208  0.66071159    -0.75600
O250        O  0.58435471  0.03186538  0.56428397    -0.75700
C251        C  0.56886546  0.04487509  0.52228188     1.04900
O252        O  0.71645828  0.14940420  0.48801006    -0.83100
O253        O  0.71216908  0.23106970  0.53755275    -0.80100
C254        C  0.73221642  0.25401622  0.58182902     1.00400
O255        O  0.71875468  0.23021050  0.62648849    -0.80200
O256        O  0.71939780  0.14599595  0.67232996    -0.82800
C257        C  0.74974015  0.13549822  0.64440456     1.04900
O258        O  0.73423969  0.10696771  0.60233326    -0.75600
O259        O  0.67771675  0.06605190  0.50587282    -0.75700
C260        C  0.71039969  0.10456355  0.47834020     1.04800
Cr261      Cr  0.65733887  0.15674674  0.52003102     1.93700
Cr262      Cr  0.66131167  0.15879545  0.64673196     1.93200
Cr263      Cr  0.65929776  0.06824921  0.58330081     1.39100
O264        O  0.65931491  0.12917050  0.58335938    -1.20800
O265        O  0.09855514  0.36473443  0.39758445    -0.83100
O266        O  0.05782227  0.38040692  0.49415029    -0.80100
C267        C  0.09633839  0.38641086  0.52170784     1.00400
O268        O  0.14119029  0.42529015  0.51204257    -0.80200
O269        O  0.22286895  0.51147731  0.46253506    -0.82800
C270        C  0.24575729  0.51403244  0.41830410     1.04900
O271        O  0.22191228  0.50330653  0.37365765    -0.75600
O272        O  0.13749900  0.41855612  0.32760370    -0.75700
C273        C  0.12715108  0.37781708  0.35555956     1.04900
O274        O  0.03935412  0.39888203  0.33935145    -0.83100
O275        O  0.02368178  0.43961206  0.43591949    -0.80100
C276        C  0.03676406  0.46821109  0.47794469     1.00400
O277        O  0.07750843  0.47856957  0.50589828    -0.80200
O278        O  0.16226492  0.56297583  0.45984763    -0.82800
C279        C  0.17298670  0.58681452  0.41519856     1.04900
O280        O  0.17042827  0.56392055  0.37097101    -0.75600
O281        O  0.08423710  0.48225364  0.32147209    -0.75700
C282        C  0.04535636  0.43740287  0.31180311     1.04800
Cr283      Cr  0.05994580  0.40100081  0.41675144     1.93700
Cr284      Cr  0.14851719  0.49172174  0.48010176     1.93200
Cr285      Cr  0.15066323  0.48956810  0.35340594     1.39100
O286        O  0.12094277  0.46199770  0.41675378    -1.20800
O287        O  0.88593567  0.25867469  0.10232321    -0.83100
O288        O  0.92683151  0.31518950  0.00586122    -0.80100
C289        C  0.88831695  0.28250259  0.97833199     1.00400
O290        O  0.84347891  0.27644474  0.98800439    -0.80200
O291        O  0.76182497  0.28074894  0.03754869    -0.82800
C292        C  0.73888450  0.26069478  0.08182347     1.04900
O293        O  0.76269562  0.27415032  0.12648167    -0.75600
O294        O  0.84691483  0.27351916  0.17232263    -0.75700
C295        C  0.85741308  0.24317612  0.14439724     1.04900
O296        O  0.94526295  0.35202975  0.16069849    -0.83100
O297        O  0.96102678  0.40856053  0.06427123    -0.80100
C298        C  0.94801537  0.42404486  0.02226713     1.00400
O299        O  0.90718378  0.39364148  0.99433612    -0.80200
O300        O  0.82228401  0.39301262  0.04031711    -0.82800
C301        C  0.81187924  0.40644929  0.08499308     1.04900
O302        O  0.81472574  0.38642790  0.12926204    -0.75600
O303        O  0.90068848  0.39070130  0.17875085    -0.75700
C304        C  0.93942007  0.38460392  0.18837674     1.04800
Cr305      Cr  0.92464736  0.33361707  0.08328915     1.93700
Cr306      Cr  0.83614688  0.33557244  0.02002406     1.93200
Cr307      Cr  0.83410766  0.33160154  0.14672494     1.39100
O308        O  0.86372738  0.33359807  0.08335126    -1.20800
O309        O  0.91762040  0.22699376  0.73119758    -0.83100
O310        O  0.97413899  0.26788531  0.82766709    -0.80100
C311        C  0.94144443  0.22937014  0.85518727     1.00400
O312        O  0.93537773  0.18452812  0.84550758    -0.80200
O313        O  0.93965634  0.10286257  0.79594731    -0.82800
C314        C  0.91962494  0.07992611  0.75166184     1.04900
O315        O  0.93310370  0.10374348  0.70700964    -0.75600
O316        O  0.93246056  0.18796927  0.66119477    -0.75700
C317        C  0.90212011  0.19846819  0.68912231     1.04900
O318        O  0.01096907  0.28632603  0.67283071    -0.83100
O319        O  0.06750318  0.30207158  0.76926212    -0.80100
C320        C  0.08298706  0.28904811  0.81125930     1.00400
O321        O  0.05257912  0.24821395  0.83918509    -0.80200
O322        O  0.05192021  0.16329689  0.79319615    -0.82800
C323        C  0.06537711  0.15292109  0.74851637     1.04900
O324        O  0.04537635  0.15579436  0.70424485    -0.75600
O325        O  0.04963995  0.24175365  0.65477050    -0.75700
C326        C  0.04353873  0.28048360  0.64514689     1.04800
Cr327      Cr  0.99256097  0.26570141  0.75023822     1.93700
Cr328      Cr  0.99449506  0.17718095  0.81348789     1.93200
Cr329      Cr  0.99054558  0.17516592  0.68678564     1.39100
O330        O  0.99253455  0.20477561  0.75016532    -1.20800
O331        O  0.07805362  0.60698997  0.00582316    -0.83100
O332        O  0.16298074  0.60766669  0.95983785    -0.80100
C333        C  0.17333114  0.59418798  0.91515663     1.00400
O334        O  0.17043195  0.61416833  0.87088209    -0.80200
O335        O  0.08448364  0.60992713  0.82141452    -0.82800
C336        C  0.04575745  0.61603404  0.81179568     1.04900
O337        O  0.03992578  0.64861076  0.83948015    -0.75600
O338        O  0.02418731  0.59206973  0.93590550    -0.75700
C339        C  0.03721361  0.57658653  0.97790134     1.04900
O340        O  0.14172331  0.72419361  0.01216006    -0.83100
O341        O  0.22338296  0.71993298  0.96259757    -0.80100
C342        C  0.24631999  0.73994749  0.91831142     1.00400
O343        O  0.22250826  0.72644748  0.87365523    -0.80200
O344        O  0.13828882  0.72711394  0.82784931    -0.82800
C345        C  0.12778648  0.75745384  0.85577635     1.04900
O346        O  0.09926482  0.74195500  0.89785217    -0.75600
O347        O  0.05836947  0.68542855  0.99431760    -0.75700
C348        C  0.09688240  0.71812229  0.02184202     1.04800
Cr349      Cr  0.14907818  0.66508194  0.98013290     1.93700
Cr350      Cr  0.15107837  0.66901531  0.85343032     1.93200
Cr351      Cr  0.06055622  0.66701290  0.91688719     1.39100
O352        O  0.12147826  0.66703582  0.91681133    -1.20800
O353        O  0.93262793  0.75242039  0.16099767    -0.83100
O354        O  0.93329979  0.83735287  0.20697325    -0.80100
C355        C  0.91982357  0.84771048  0.25165191     1.00400
O356        O  0.93980534  0.84481862  0.29592858    -0.80200
O357        O  0.93556326  0.75887439  0.34540671    -0.82800
C358        C  0.94166937  0.72014807  0.35503206     1.04900
O359        O  0.97424482  0.71431195  0.32735261    -0.75600
O360        O  0.91770672  0.69856136  0.23092050    -0.75700
C361        C  0.90222342  0.71158411  0.18892210     1.04900
O362        O  0.04982863  0.81609566  0.15467073    -0.83100
O363        O  0.04556227  0.89776353  0.20422259    -0.80100
C364        C  0.06557512  0.92070652  0.24850919     1.00400
O365        O  0.05207936  0.89689697  0.29316534    -0.80200
O366        O  0.05274540  0.81268004  0.33898139    -0.82800
C367        C  0.08308609  0.80217790  0.31105794     1.04900
O368        O  0.06758767  0.77364784  0.26898539    -0.75600
O369        O  0.01106582  0.73274080  0.17251715    -0.75700
C370        C  0.04375884  0.77125262  0.14499319     1.04800
Cr371      Cr  0.99071625  0.82345165  0.18668791     1.93700
Cr372      Cr  0.99464962  0.82546686  0.31339055     1.93200
Cr373      Cr  0.99264807  0.73493446  0.24994488     1.39100
O374        O  0.99267052  0.79585837  0.25001304    -1.20800
O375        O  0.84762625  0.58201994  0.67255588    -0.83100
O376        O  0.76323379  0.49722483  0.62651940    -0.80100
C377        C  0.73939867  0.48656460  0.58186981     1.00400
O378        O  0.76229439  0.48918434  0.53762710    -0.80200
O379        O  0.84398717  0.57534424  0.48812915    -0.82800
C380        C  0.88884472  0.61421146  0.47846312     1.04900
O381        O  0.92735276  0.62019968  0.50602194    -0.75600
O382        O  0.88659449  0.63586154  0.60258864    -0.75700
C383        C  0.85798745  0.62276901  0.64460759     1.04900
O384        O  0.90094407  0.51836696  0.67869838    -0.83100
O385        O  0.81479058  0.43668120  0.62918866    -0.80100
C386        C  0.81217531  0.41378699  0.58494523     1.00400
O387        O  0.82283559  0.43762358  0.54029741    -0.80200
O388        O  0.90763263  0.52201993  0.49427563    -0.82800
C389        C  0.94837962  0.53238060  0.52222769     1.04900
O390        O  0.96146820  0.56098429  0.56425145    -0.75600
O391        O  0.94580101  0.60173660  0.66082090    -0.75700
C392        C  0.93981196  0.56322350  0.68837132     1.04800
Cr393      Cr  0.83450397  0.51101753  0.64676126     1.93700
Cr394      Cr  0.83663088  0.50889822  0.52006207     1.93200
Cr395      Cr  0.92520896  0.59960053  0.58342030     1.39100
O396        O  0.86421257  0.53860365  0.58341420    -1.20800
C397        C  0.89796823  0.65097119  0.43489409    -0.11000
C398        C  0.91411080  0.68337429  0.39866743    -0.12600
C399        C  0.08777261  0.74587747  0.06535096    -0.11000
C400        C  0.07151341  0.76213877  0.10148797    -0.12600
C401        C  0.00897905  0.58847638  0.76816177    -0.11000
C402        C  0.97657256  0.57233899  0.73193730    -0.12600
C403        C  0.89742407  0.25474252  0.93482566    -0.11000
C404        C  0.91368500  0.23848010  0.89869091    -0.12600
C405        C  0.00541036  0.52315710  0.99411880    -0.11000
C406        C  0.97982449  0.47747414  0.00605177    -0.12600
C407        C  0.97992835  0.51049362  0.50604596    -0.11000
C408        C  0.00521233  0.49009508  0.49412500    -0.12600
C409        C  0.08722831  0.34965480  0.56527769    -0.11000
C410        C  0.07109332  0.31725361  0.60150675    -0.12600
C411        C  0.97619193  0.41216658  0.23201397    -0.11000
C412        C  0.00859735  0.42830028  0.26823945    -0.12600
C413        C  0.80311285  0.15701591  0.66074097    -0.11000
C414        C  0.84874849  0.17695504  0.67278433    -0.12600
C415        C  0.76889523  0.31004892  0.58229685    -0.11000
C416        C  0.79277763  0.35777428  0.58448834    -0.12600
C417        C  0.83590645  0.18980454  0.16073690    -0.11000
C418        C  0.81597688  0.14416902  0.17278070    -0.12600
C419        C  0.73815597  0.09545162  0.43483337    -0.11000
C420        C  0.75442195  0.07919679  0.39869538    -0.12600
C421        C  0.85938241  0.89092033  0.24895236    -0.11000
C422        C  0.88321556  0.86708345  0.25119180    -0.12600
C423        C  0.67566119  0.92181775  0.10149287    -0.11000
C424        C  0.64325348  0.90567960  0.06526946    -0.12600
C425        C  0.56460929  0.98430349  0.76823959    -0.11000
C426        C  0.58075056  0.01670981  0.73201676    -0.12600
C427        C  0.35007282  0.80052088  0.91564901    -0.11000
C428        C  0.30234903  0.77663344  0.91783333    -0.12600
C429        C  0.18208928  0.84362398  0.33944712    -0.11000
C430        C  0.13645574  0.82369037  0.32739931    -0.12600
C431        C  0.46975206  0.98748482  0.49413671    -0.11000
C432        C  0.51543502  0.01306589  0.50607046    -0.12600
C433        C  0.19238887  0.64282816  0.41563870    -0.11000
C434        C  0.21627236  0.69055381  0.41782376    -0.12600
C435        C  0.23076117  0.92141376  0.60147754    -0.11000
C436        C  0.24702935  0.90515535  0.56534601    -0.12600
C437        C  0.14928707  0.81082319  0.83943402    -0.11000
C438        C  0.16921115  0.85645615  0.82738375    -0.12600
C439        C  0.12581404  0.10970859  0.75120572    -0.11000
C440        C  0.10198421  0.13354828  0.74897025    -0.12600
C441        C  0.50281007  0.98769582  0.99412342    -0.11000
C442        C  0.48240995  0.01297764  0.00604558    -0.12600
C443        C  0.34192939  0.09493338  0.93489417    -0.11000
C444        C  0.30952601  0.07879393  0.89866729    -0.12600
C445        C  0.40442063  0.98393132  0.26816611    -0.11000
C446        C  0.42055676  0.01633382  0.23193888    -0.12600
C447        C  0.63512927  0.20012996  0.08448281    -0.11000
C448        C  0.68285322  0.22401473  0.08229164    -0.12600
C449        C  0.31332566  0.17722216  0.17271358    -0.11000
C450        C  0.33860729  0.15682263  0.16078930    -0.12600
C451        C  0.16946308  0.32100879  0.32746363    -0.11000
C452        C  0.14904770  0.34627654  0.33938349    -0.12600
C453        C  0.10225294  0.97673968  0.24898896    -0.11000
C454        C  0.12613446  0.02446531  0.25117764    -0.12600
C455        C  0.01675361  0.13385545  0.24895145    -0.11000
C456        C  0.96902975  0.10997115  0.25115695    -0.12600
C457        C  0.31308275  0.14412863  0.67270965    -0.11000
C458        C  0.33867637  0.18981230  0.66077829    -0.12600
C459        C  0.30990539  0.23897136  0.39860217    -0.11000
C460        C  0.34231419  0.25510816  0.43482456    -0.12600
C461        C  0.63566203  0.44326996  0.58452577    -0.11000
C462        C  0.68338587  0.46715927  0.58232608    -0.12600
C463        C  0.52601719  0.22422622  0.58229836    -0.11000
C464        C  0.54985570  0.20039413  0.58454082    -0.12600
C465        C  0.42109214  0.41254326  0.73200836    -0.11000
C466        C  0.40483686  0.42880673  0.76814842    -0.12600
C467        C  0.23129441  0.31764853  0.10156838    -0.11000
C468        C  0.24743257  0.35005183  0.06534147    -0.12600
C469        C  0.13642230  0.32084571  0.82746951    -0.11000
C470        C  0.18211059  0.34642716  0.83938913    -0.12600
C471        C  0.43557052  0.64340133  0.91565005    -0.11000
C472        C  0.45945175  0.69112670  0.91785421    -0.12600
C473        C  0.21653778  0.53374252  0.91785634    -0.11000
C474        C  0.19270323  0.55757813  0.91561273    -0.12600
C475        C  0.64660078  0.84383805  0.83937547    -0.11000
C476        C  0.67187220  0.82342882  0.82744795    -0.12600
C477        C  0.83609511  0.65431379  0.66078676    -0.11000
C478        C  0.81569033  0.67959274  0.67270430    -0.12600
C479        C  0.85905472  0.97616656  0.74896573    -0.11000
C480        C  0.88294364  0.02389224  0.75117290    -0.12600
C481        C  0.01614632  0.89065067  0.74900789    -0.11000
C482        C  0.96842218  0.86676988  0.75119760    -0.12600
C483        C  0.84879230  0.67978359  0.17270651    -0.11000
C484        C  0.80310785  0.65420540  0.16077580    -0.12600
C485        C  0.73778075  0.65059146  0.93481167    -0.11000
C486        C  0.75391035  0.68299494  0.89858550    -0.12600
C487        C  0.51542883  0.51030411  0.00610167    -0.11000
C488        C  0.46979104  0.49036418  0.99406470    -0.12600
C489        C  0.76866969  0.46689171  0.08228153    -0.11000
C490        C  0.79250459  0.44305684  0.08453209    -0.12600
C491        C  0.54962776  0.35724982  0.08451487    -0.11000
C492        C  0.52574105  0.30952454  0.08232429    -0.12600
C493        C  0.56409871  0.58807711  0.26813017    -0.11000
C494        C  0.58036920  0.57182394  0.23199531    -0.12600
C495        C  0.67526100  0.76162987  0.60154794    -0.11000
C496        C  0.64285498  0.74548851  0.56532241    -0.12600
C497        C  0.64647106  0.81079892  0.33936708    -0.11000
C498        C  0.67207060  0.85648483  0.32744231    -0.12600
C499        C  0.48263165  0.47748213  0.50608615    -0.11000
C500        C  0.50256543  0.52311826  0.49404241    -0.12600
C501        C  0.45914731  0.77636059  0.41786088    -0.11000
C502        C  0.43531461  0.80019782  0.41562310    -0.12600
C503        C  0.30177189  0.53343692  0.41785061    -0.11000
C504        C  0.34949655  0.55731912  0.41564028    -0.12600
loop_ 
_geom_bond_atom_site_label_1 
_geom_bond_atom_site_label_2 
_geom_bond_distance 
_geom_bond_site_symmetry_2 
_ccdc_geom_bond_type 
O1          Cr19   1.954       .  S
O1            C9   1.265       .  A
O2          Cr19   1.996       .  S
O2            C3   1.251       .  A
C3            O4   1.254       .  A
C3          C493   1.449       .  S
O4          Cr20   2.007       .  S
O5          Cr20   1.996       .  S
O5            C6   1.263       .  A
C6            O7   1.258       .  A
C6          C504   1.439       .  S
O7          Cr21   1.978       .  S
O8          Cr21   2.016       .  S
O8            C9   1.276       .  A
C9          C500   1.418       .  S
O10         Cr19   1.996       .  S
O10          C18   1.251       .  A
O11         Cr19   1.954       .  S
O11          C12   1.265       .  A
C12          O13   1.276       .  A
C12         C497   1.418       .  S
O13         Cr20   2.016       .  S
O14         Cr20   1.979       .  S
O14          C15   1.258       .  A
C15          O16   1.263       .  A
C15         C501   1.440       .  S
O16         Cr21   1.997       .  S
O17         Cr21   2.007       .  S
O17          C18   1.254       .  A
C18         C496   1.449       .  S
Cr19         O22   1.781       .  S
Cr20         O22   1.775       .  S
Cr21         O22   1.775       .  S
O23         Cr41   1.954       .  S
O23          C31   1.265       .  A
O24         Cr41   1.996       .  S
O24          C25   1.251       .  A
C25          O26   1.254       .  A
C25         C494   1.449       .  S
O26         Cr42   2.007       .  S
O27         Cr42   1.996       .  S
O27          C28   1.263       .  A
C28          O29   1.258       .  A
C28         C491   1.439       .  S
O29         Cr43   1.978       .  S
O30         Cr43   2.016   1_556  S
O30          C31   1.276   1_556  A
C31         C487   1.418       .  S
O32         Cr41   1.996       .  S
O32          C40   1.251   1_554  A
O33         Cr41   1.954       .  S
O33          C34   1.265       .  A
C34          O35   1.276       .  A
C34         C484   1.417       .  S
O35         Cr42   2.015       .  S
O36         Cr42   1.979       .  S
O36          C37   1.258       .  A
C37          O38   1.263       .  A
C37         C489   1.440       .  S
O38         Cr43   1.997       .  S
O39         Cr43   2.007   1_556  S
O39          C40   1.254       .  A
C40         C485   1.449       .  S
Cr41         O44   1.781       .  S
Cr42         O44   1.775       .  S
Cr43         O44   1.775       .  S
O45         Cr63   1.954       .  S
O45          C53   1.265       .  A
O46         Cr63   1.997       .  S
O46          C47   1.251       .  A
C47          O48   1.254       .  A
C47         C495   1.449       .  S
O48         Cr64   2.007       .  S
O49         Cr64   1.997       .  S
O49          C50   1.263       .  A
C50          O51   1.258       .  A
C50         C479   1.439       .  S
O51         Cr65   1.978       .  S
O52         Cr65   2.015       .  S
O52          C53   1.276       .  A
C53         C476   1.418       .  S
O54         Cr63   1.997       .  S
O54          C62   1.251       .  A
O55         Cr63   1.954       .  S
O55          C56   1.265       .  A
C56          O57   1.276       .  A
C56         C478   1.418       .  S
O57         Cr64   2.015       .  S
O58         Cr64   1.978       .  S
O58          C59   1.258       .  A
C59          O60   1.263       .  A
C59         C482   1.439       .  S
O60         Cr65   1.996       .  S
O61         Cr65   2.007       .  S
O61          C62   1.254       .  A
C62         C486   1.449       .  S
Cr63         O66   1.781       .  S
Cr64         O66   1.775       .  S
Cr65         O66   1.775       .  S
O67         Cr85   2.015       .  S
O67          C75   1.276       .  A
O68         Cr85   1.979       .  S
O68          C69   1.258       .  A
C69          O70   1.263       .  A
C69         C473   1.440       .  S
O70         Cr86   1.997       .  S
O71         Cr86   2.007   1_554  S
O71          C72   1.254       .  A
C72          O73   1.251   1_554  A
C72         C468   1.449       .  S
O73         Cr87   1.996       .  S
O74         Cr87   1.954       .  S
O74          C75   1.265       .  A
C75         C470   1.418       .  S
O76         Cr85   2.007       .  S
O76          C84   1.254       .  A
O77         Cr85   1.996       .  S
O77          C78   1.263       .  A
C78          O79   1.258       .  A
C78         C471   1.439       .  S
O79         Cr86   1.978       .  S
O80         Cr86   2.016   1_554  S
O80          C81   1.276   1_554  A
C81          O82   1.265       .  A
C81         C488   1.418       .  S
O82         Cr87   1.954       .  S
O83         Cr87   1.996       .  S
O83          C84   1.251       .  A
C84         C466   1.449       .  S
Cr85         O88   1.775       .  S
Cr86         O88   1.775       .  S
Cr87         O88   1.781       .  S
O89        Cr107   2.015       .  S
O89          C97   1.276       .  A
O90        Cr107   1.979       .  S
O90          C91   1.258       .  A
C91          O92   1.263       .  A
C91         C463   1.440       .  S
O92        Cr108   1.997       .  S
O93        Cr108   2.007       .  S
O93          C94   1.254       .  A
C94          O95   1.251       .  A
C94         C460   1.449       .  S
O95        Cr109   1.996       .  S
O96        Cr109   1.954       .  S
O96          C97   1.265       .  A
C97         C458   1.417       .  S
O98        Cr107   2.007       .  S
O98         C106   1.254       .  A
O99        Cr107   1.996       .  S
O99         C100   1.263       .  A
C100        O101   1.258       .  A
C100        C461   1.439       .  S
O101       Cr108   1.978       .  S
O102       Cr108   2.016       .  S
O102        C103   1.276       .  A
C103        O104   1.265       .  A
C103        C499   1.418       .  S
O104       Cr109   1.954       .  S
O105       Cr109   1.996       .  S
O105        C106   1.251       .  A
C106        C465   1.449       .  S
Cr107       O110   1.775       .  S
Cr108       O110   1.775       .  S
Cr109       O110   1.781       .  S
O111       Cr129   2.015       .  S
O111        C119   1.276       .  A
O112       Cr129   1.978       .  S
O112        C113   1.258       .  A
C113        O114   1.263       .  A
C113        C455   1.439       .  S
O114       Cr130   1.997       .  S
O115       Cr130   2.007       .  S
O115        C116   1.254       .  A
C116        O117   1.251       .  A
C116        C467   1.449       .  S
O117       Cr131   1.997       .  S
O118       Cr131   1.954       .  S
O118        C119   1.265       .  A
C119        C451   1.418       .  S
O120       Cr129   2.007       .  S
O120        C128   1.254       .  A
O121       Cr129   1.996       .  S
O121        C122   1.263       .  A
C122        O123   1.258       .  A
C122        C454   1.439       .  S
O123       Cr130   1.978       .  S
O124       Cr130   2.015       .  S
O124        C125   1.276       .  A
C125        O126   1.265       .  A
C125        C449   1.418       .  S
O126       Cr131   1.954       .  S
O127       Cr131   1.997       .  S
O127        C128   1.251       .  A
C128        C459   1.449       .  S
Cr129       O132   1.775       .  S
Cr130       O132   1.775       .  S
Cr131       O132   1.781       .  S
O133       Cr151   1.954       .  S
O133        C141   1.266       .  A
O134       Cr151   1.997       .  S
O134        C135   1.251   1_554  A
C135        O136   1.254       .  A
C135        C443   1.449       .  S
O136       Cr152   2.007   1_556  S
O137       Cr152   1.996       .  S
O137        C138   1.263       .  A
C138        O139   1.258       .  A
C138        C492   1.439       .  S
O139       Cr153   1.978       .  S
O140       Cr153   2.015       .  S
O140        C141   1.276       .  A
C141        C450   1.418       .  S
O142       Cr151   1.997       .  S
O142        C150   1.251       .  A
O143       Cr151   1.954       .  S
O143        C144   1.266       .  A
C144        O145   1.276   1_554  A
C144        C442   1.418       .  S
O145       Cr152   2.015   1_556  S
O146       Cr152   1.978       .  S
O146        C147   1.258       .  A
C147        O148   1.263       .  A
C147        C447   1.439       .  S
O148       Cr153   1.996       .  S
O149       Cr153   2.007       .  S
O149        C150   1.254       .  A
C150        C446   1.449       .  S
Cr151       O154   1.781       .  S
Cr152       O154   1.775       .  S
Cr153       O154   1.775       .  S
O155       Cr173   1.954   1_565  S
O155        C163   1.265       .  A
O156       Cr173   1.996   1_565  S
O156        C157   1.251       .  A
C157        O158   1.254       .  A
C157        C435   1.449       .  S
O158       Cr174   2.007   1_565  S
O159       Cr174   1.996   1_565  S
O159        C160   1.263       .  A
C160        O161   1.258       .  A
C160        C481   1.439       .  S
O161       Cr175   1.978       .  S
O162       Cr175   2.016       .  S
O162        C163   1.276       .  A
C163        C438   1.418       .  S
O164       Cr173   1.996       .  S
O164        C172   1.251       .  A
O165       Cr173   1.954       .  S
O165        C166   1.265       .  A
C166        O167   1.276       .  A
C166        C457   1.417       .  S
O167       Cr174   2.015       .  S
O168       Cr174   1.979       .  S
O168        C169   1.258       .  A
C169        O170   1.263       .  A
C169        C439   1.440       .  S
O170       Cr175   1.997   1_545  S
O171       Cr175   2.007   1_545  S
O171        C172   1.254       .  A
C172        C444   1.449       .  S
Cr173       O176   1.781       .  S
Cr174       O176   1.775       .  S
Cr175       O176   1.775   1_565  S
O177       Cr195   1.954       .  S
O177        C185   1.265       .  A
O178       Cr195   1.996       .  S
O178        C179   1.251       .  A
C179        O180   1.254       .  A
C179        C436   1.449       .  S
O180       Cr196   2.007       .  S
O181       Cr196   1.996       .  S
O181        C182   1.263       .  A
C182        O183   1.258       .  A
C182        C434   1.439       .  S
O183       Cr197   1.978       .  S
O184       Cr197   2.016       .  S
O184        C185   1.276       .  A
C185        C429   1.418       .  S
O186       Cr195   1.996       .  S
O186        C194   1.251       .  A
O187       Cr195   1.954       .  S
O187        C188   1.265       .  A
C188        O189   1.276       .  A
C188        C431   1.417       .  S
O189       Cr196   2.015       .  S
O190       Cr196   1.979       .  S
O190        C191   1.258       .  A
C191        O192   1.263       .  A
C191        C502   1.440       .  S
O192       Cr197   1.997       .  S
O193       Cr197   2.007       .  S
O193        C194   1.254       .  A
C194        C445   1.449       .  S
Cr195       O198   1.781       .  S
Cr196       O198   1.775       .  S
Cr197       O198   1.775       .  S
O199       Cr217   2.015       .  S
O199        C207   1.276       .  A
O200       Cr217   1.978       .  S
O200        C201   1.258       .  A
C201        O202   1.263       .  A
C201        C472   1.439       .  S
O202       Cr218   1.997       .  S
O203       Cr218   2.007   1_554  S
O203        C204   1.254       .  A
C204        O205   1.251   1_554  A
C204        C424   1.449       .  S
O205       Cr219   1.997       .  S
O206       Cr219   1.954       .  S
O206        C207   1.265       .  A
C207        C475   1.418       .  S
O208       Cr217   2.007       .  S
O208        C216   1.254       .  A
O209       Cr217   1.996       .  S
O209        C210   1.263       .  A
C210        O211   1.258       .  A
C210        C427   1.439       .  S
O211       Cr218   1.978       .  S
O212       Cr218   2.015   1_554  S
O212        C213   1.276   1_554  A
C213        O214   1.265       .  A
C213        C441   1.418       .  S
O214       Cr219   1.954       .  S
O215       Cr219   1.997       .  S
O215        C216   1.251       .  A
C216        C425   1.449       .  S
Cr217       O220   1.775       .  S
Cr218       O220   1.775       .  S
Cr219       O220   1.781       .  S
O221       Cr239   2.016       .  S
O221        C229   1.276       .  A
O222       Cr239   1.979       .  S
O222        C223   1.258       .  A
C223        O224   1.263       .  A
C223        C421   1.440       .  S
O224       Cr240   1.997   1_565  S
O225       Cr240   2.007   1_565  S
O225        C226   1.254       .  A
C226        O227   1.251       .  A
C226        C423   1.449       .  S
O227       Cr241   1.996   1_565  S
O228       Cr241   1.954   1_565  S
O228        C229   1.265       .  A
C229        C498   1.418       .  S
O230       Cr239   2.007   1_545  S
O230        C238   1.254       .  A
O231       Cr239   1.996   1_545  S
O231        C232   1.263       .  A
C232        O233   1.258       .  A
C232        C456   1.439       .  S
O233       Cr240   1.978       .  S
O234       Cr240   2.016       .  S
O234        C235   1.276       .  A
C235        O236   1.265       .  A
C235        C418   1.418       .  S
O236       Cr241   1.954       .  S
O237       Cr241   1.996       .  S
O237        C238   1.251       .  A
C238        C420   1.449       .  S
Cr239       O242   1.775   1_565  S
Cr240       O242   1.775       .  S
Cr241       O242   1.781       .  S
O243       Cr261   2.015       .  S
O243        C251   1.276       .  A
O244       Cr261   1.979       .  S
O244        C245   1.258       .  A
C245        O246   1.263       .  A
C245        C464   1.440       .  S
O246       Cr262   1.997       .  S
O247       Cr262   2.007       .  S
O247        C248   1.254       .  A
C248        O249   1.251       .  A
C248        C426   1.449       .  S
O249       Cr263   1.996       .  S
O250       Cr263   1.954       .  S
O250        C251   1.265       .  A
C251        C432   1.417       .  S
O252       Cr261   2.007       .  S
O252        C260   1.254       .  A
O253       Cr261   1.996       .  S
O253        C254   1.263       .  A
C254        O255   1.258       .  A
C254        C415   1.439       .  S
O255       Cr262   1.978       .  S
O256       Cr262   2.016       .  S
O256        C257   1.276       .  A
C257        O258   1.265       .  A
C257        C413   1.418       .  S
O258       Cr263   1.954       .  S
O259       Cr263   1.996       .  S
O259        C260   1.251       .  A
C260        C419   1.449       .  S
Cr261       O264   1.775       .  S
Cr262       O264   1.775       .  S
Cr263       O264   1.781       .  S
O265       Cr283   1.954       .  S
O265        C273   1.265       .  A
O266       Cr283   1.997       .  S
O266        C267   1.251       .  A
C267        O268   1.254       .  A
C267        C409   1.449       .  S
O268       Cr284   2.007       .  S
O269       Cr284   1.997       .  S
O269        C270   1.263       .  A
C270        O271   1.258       .  A
C270        C503   1.439       .  S
O271       Cr285   1.978       .  S
O272       Cr285   2.015       .  S
O272        C273   1.276       .  A
C273        C452   1.418       .  S
O274       Cr283   1.997       .  S
O274        C282   1.251       .  A
O275       Cr283   1.954       .  S
O275        C276   1.265       .  A
C276        O277   1.276       .  A
C276        C408   1.418       .  S
O277       Cr284   2.015       .  S
O278       Cr284   1.978       .  S
O278        C279   1.258       .  A
C279        O280   1.263       .  A
C279        C433   1.439       .  S
O280       Cr285   1.996       .  S
O281       Cr285   2.007       .  S
O281        C282   1.254       .  A
C282        C412   1.449       .  S
Cr283       O286   1.781       .  S
Cr284       O286   1.775       .  S
Cr285       O286   1.775       .  S
O287       Cr305   1.954       .  S
O287        C295   1.265       .  A
O288       Cr305   1.996       .  S
O288        C289   1.251   1_554  A
C289        O290   1.254       .  A
C289        C403   1.449       .  S
O290       Cr306   2.007   1_556  S
O291       Cr306   1.996       .  S
O291        C292   1.263       .  A
C292        O293   1.258       .  A
C292        C448   1.439       .  S
O293       Cr307   1.978       .  S
O294       Cr307   2.016       .  S
O294        C295   1.276       .  A
C295        C417   1.418       .  S
O296       Cr305   1.996       .  S
O296        C304   1.251       .  A
O297       Cr305   1.954       .  S
O297        C298   1.265       .  A
C298        O299   1.276   1_554  A
C298        C406   1.417       .  S
O299       Cr306   2.015   1_556  S
O300       Cr306   1.979       .  S
O300        C301   1.258       .  A
C301        O302   1.263       .  A
C301        C490   1.440       .  S
O302       Cr307   1.997       .  S
O303       Cr307   2.007       .  S
O303        C304   1.254       .  A
C304        C411   1.449       .  S
Cr305       O308   1.781       .  S
Cr306       O308   1.775       .  S
Cr307       O308   1.775       .  S
O309       Cr327   1.954       .  S
O309        C317   1.265       .  A
O310       Cr327   1.996       .  S
O310        C311   1.251       .  A
C311        O312   1.254       .  A
C311        C404   1.449       .  S
O312       Cr328   2.007       .  S
O313       Cr328   1.996       .  S
O313        C314   1.263       .  A
C314        O315   1.258       .  A
C314        C480   1.439       .  S
O315       Cr329   1.978       .  S
O316       Cr329   2.016       .  S
O316        C317   1.276       .  A
C317        C414   1.418       .  S
O318       Cr327   1.996   1_455  S
O318        C326   1.251       .  A
O319       Cr327   1.954   1_455  S
O319        C320   1.265       .  A
C320        O321   1.276       .  A
C320        C469   1.418       .  S
O321       Cr328   2.015   1_455  S
O322       Cr328   1.979   1_455  S
O322        C323   1.258       .  A
C323        O324   1.263       .  A
C323        C440   1.440       .  S
O324       Cr329   1.997   1_455  S
O325       Cr329   2.007   1_455  S
O325        C326   1.254       .  A
C326        C410   1.449       .  S
Cr327       O330   1.781       .  S
Cr328       O330   1.775       .  S
Cr329       O330   1.775       .  S
O331       Cr349   2.015   1_554  S
O331        C339   1.276   1_554  A
O332       Cr349   1.979       .  S
O332        C333   1.258       .  A
C333        O334   1.263       .  A
C333        C474   1.440       .  S
O334       Cr350   1.997       .  S
O335       Cr350   2.007       .  S
O335        C336   1.254       .  A
C336        O337   1.251       .  A
C336        C401   1.449       .  S
O337       Cr351   1.996       .  S
O338       Cr351   1.954       .  S
O338        C339   1.265       .  A
C339        C405   1.417       .  S
O340       Cr349   2.007   1_554  S
O340        C348   1.254       .  A
O341       Cr349   1.996       .  S
O341        C342   1.263       .  A
C342        O343   1.258       .  A
C342        C428   1.439       .  S
O343       Cr350   1.978       .  S
O344       Cr350   2.016       .  S
O344        C345   1.276       .  A
C345        O346   1.265       .  A
C345        C437   1.418       .  S
O346       Cr351   1.954       .  S
O347       Cr351   1.996       .  S
O347        C348   1.251   1_556  A
C348        C399   1.449       .  S
Cr349       O352   1.775       .  S
Cr350       O352   1.775       .  S
Cr351       O352   1.781       .  S
O353       Cr371   2.015       .  S
O353        C361   1.276       .  A
O354       Cr371   1.979       .  S
O354        C355   1.258       .  A
C355        O356   1.263       .  A
C355        C422   1.440       .  S
O356       Cr372   1.997       .  S
O357       Cr372   2.007       .  S
O357        C358   1.254       .  A
C358        O359   1.251       .  A
C358        C398   1.449       .  S
O359       Cr373   1.996       .  S
O360       Cr373   1.954       .  S
O360        C361   1.265       .  A
C361        C483   1.417       .  S
O362       Cr371   2.007   1_455  S
O362        C370   1.254       .  A
O363       Cr371   1.996   1_455  S
O363        C364   1.263       .  A
C364        O365   1.258       .  A
C364        C453   1.439       .  S
O365       Cr372   1.978   1_455  S
O366       Cr372   2.016   1_455  S
O366        C367   1.276       .  A
C367        O368   1.265       .  A
C367        C430   1.418       .  S
O368       Cr373   1.954   1_455  S
O369       Cr373   1.996   1_455  S
O369        C370   1.251       .  A
C370        C400   1.449       .  S
Cr371       O374   1.775       .  S
Cr372       O374   1.775       .  S
Cr373       O374   1.781       .  S
O375       Cr393   2.015       .  S
O375        C383   1.276       .  A
O376       Cr393   1.978       .  S
O376        C377   1.258       .  A
C377        O378   1.263       .  A
C377        C462   1.439       .  S
O378       Cr394   1.996       .  S
O379       Cr394   2.007       .  S
O379        C380   1.254       .  A
C380        O381   1.251       .  A
C380        C397   1.449       .  S
O381       Cr395   1.997       .  S
O382       Cr395   1.954       .  S
O382        C383   1.265       .  A
C383        C477   1.418       .  S
O384       Cr393   2.007       .  S
O384        C392   1.254       .  A
O385       Cr393   1.996       .  S
O385        C386   1.263       .  A
C386        O387   1.258       .  A
C386        C416   1.439       .  S
O387       Cr394   1.978       .  S
O388       Cr394   2.015       .  S
O388        C389   1.276       .  A
C389        O390   1.265       .  A
C389        C407   1.418       .  S
O390       Cr395   1.954       .  S
O391       Cr395   1.997       .  S
O391        C392   1.251       .  A
C392        C402   1.449       .  S
Cr393       O396   1.775       .  S
Cr394       O396   1.775       .  S
Cr395       O396   1.781       .  S
C397        C398   1.214       .  T
C399        C400   1.214       .  T
C401        C402   1.214   1_455  T
C403        C404   1.214       .  T
C405        C406   1.195   1_456  T
C407        C408   1.196   1_655  T
C409        C410   1.214       .  T
C411        C412   1.214   1_655  T
C413        C414   1.195       .  T
C415        C416   1.208       .  T
C417        C418   1.195       .  T
C419        C420   1.214       .  T
C421        C422   1.209       .  T
C423        C424   1.214       .  T
C425        C426   1.214   1_565  T
C427        C428   1.208       .  T
C429        C430   1.195       .  T
C431        C432   1.195   1_565  T
C433        C434   1.208       .  T
C435        C436   1.214       .  T
C437        C438   1.195       .  T
C439        C440   1.209       .  T
C441        C442   1.196   1_566  T
C443        C444   1.214       .  T
C445        C446   1.214   1_565  T
C447        C448   1.208       .  T
C449        C450   1.196       .  T
C451        C452   1.196       .  T
C453        C454   1.208   1_565  T
C455        C456   1.208   1_455  T
C457        C458   1.195       .  T
C459        C460   1.214       .  T
C461        C462   1.208       .  T
C463        C464   1.209       .  T
C465        C466   1.214       .  T
C467        C468   1.214       .  T
C469        C470   1.195       .  T
C471        C472   1.208       .  T
C473        C474   1.209       .  T
C475        C476   1.196       .  T
C477        C478   1.196       .  T
C479        C480   1.208   1_565  T
C481        C482   1.208   1_455  T
C483        C484   1.195       .  T
C485        C486   1.214       .  T
C487        C488   1.195   1_554  T
C489        C490   1.209       .  T
C491        C492   1.208       .  T
C493        C494   1.214       .  T
C495        C496   1.214       .  T
C497        C498   1.195       .  T
C499        C500   1.195       .  T
C501        C502   1.209       .  T
C503        C504   1.208       .  T
