geometry optimzed in LAMMPS
_audit_creation_date              2020-11-30 
_audit_creation_method            'lammps2cif' 
_symmetry_space_group_name_H-M    'P1' 
_symmetry_Int_Tables_number       1 
_symmetry_cell_setting            triclinic 
loop_ 
_symmetry_equiv_pos_as_xyz 
  x,y,z 
_cell_length_a                    46.5643175 
_cell_length_b                    46.650230913372006 
_cell_length_c                    46.55502612327745 
_cell_angle_alpha                 90.07814615468484 
_cell_angle_beta                  90.05520818710454 
_cell_angle_gamma                 89.89607909202702 
loop_ 
_atom_site_label 
_atom_site_type_symbol 
_atom_site_fract_x 
_atom_site_fract_y 
_atom_site_fract_z 
_atom_site_charge 
N1          N  0.00272823  0.04843800  0.25159870    -0.35600
N2          N  0.96067906  0.00224968  0.25338032    -0.56200
N3          N  0.00517357  0.95970894  0.24560771    -0.35600
N4          N  0.04722521  0.00559006  0.24261120    -0.56200
C5          C  0.97803023  0.06257699  0.24562763     0.28000
C6          C  0.02452197  0.06438285  0.24090576     0.28000
C7          C  0.98147416  0.94441100  0.23850226     0.27900
C8          C  0.02811985  0.94602885  0.23404336     0.27900
C9          C  0.94343600  0.02471866  0.25955288     0.36600
C10         C  0.94461161  0.97839599  0.25671262     0.36600
C11         C  0.06338122  0.02904614  0.24803235     0.36600
C12         C  0.06483912  0.98266262  0.24524416     0.36600
C13         C  0.98419817  0.08786370  0.23131411    -0.20900
C14         C  0.01347992  0.08887409  0.22809650    -0.20900
C15         C  0.98961542  0.92045834  0.22276189    -0.20900
C16         C  0.01888780  0.92171559  0.21959731    -0.20900
C17         C  0.91650586  0.01514187  0.26766847    -0.22000
C18         C  0.91719784  0.98578546  0.26576888    -0.22000
C19         C  0.09119098  0.02095018  0.25493274    -0.22000
C20         C  0.09210581  0.99153844  0.25319891    -0.22000
C21         C  0.95006692  0.05338509  0.25284257    -0.17300
C22         C  0.05405426  0.05746798  0.24297967    -0.17300
C23         C  0.05720635  0.95443162  0.23722604    -0.17300
C24         C  0.95285939  0.95104593  0.24662012    -0.17300
H25         H  0.96912860  0.10368163  0.22338599     0.15600
H26         H  0.02509724  0.10549465  0.21689632     0.15600
H27         H  0.97605049  0.90368759  0.21424821     0.15600
H28         H  0.03175976  0.90640764  0.20778446     0.15600
H29         H  0.89781757  0.02804059  0.27268058     0.13900
H30         H  0.89903031  0.97176689  0.26901132     0.13900
H31         H  0.10912876  0.03482033  0.25991129     0.13900
H32         H  0.11087092  0.97828686  0.25672452     0.13900
H33         H  0.00475898  0.03006545  0.26415356     0.27100
H34         H  0.00599697  0.97704205  0.25969853     0.27100
O35         O  0.30243467  0.24484871  0.19648252    -0.77500
C36         C  0.30848384  0.30163886  0.12351199     0.83500
O37         O  0.20773631  0.28858953  0.18655771    -0.78600
O38         O  0.22681226  0.27377372  0.08599201    -0.80100
O39         O  0.26716869  0.18562955  0.11663584    -0.79900
O40         O  0.29313448  0.19977103  0.18370033    -0.78500
Zn41       Zn  0.27726960  0.27050867  0.17236026     1.55700
O42         O  0.27304727  0.21987388  0.08368901    -0.79900
Cd43       Cd  0.25963439  0.20634238  0.15475539     1.59700
Cd44       Cd  0.21154104  0.25637565  0.15590380     1.59600
O45         O  0.22311269  0.18660267  0.17004810    -0.79900
O46         O  0.25302255  0.24797939  0.14746237    -1.90400
Cd47       Cd  0.26298198  0.25724986  0.10637658     1.59900
O48         O  0.18965155  0.22075631  0.17154585    -0.79900
O49         O  0.29646497  0.28711396  0.10360291    -0.78500
C50         C  0.22705789  0.30070238  0.20171818     0.84000
C51         C  0.30693764  0.21797891  0.19878718     0.83700
O52         O  0.30245285  0.29757513  0.14987578    -0.77500
C53         C  0.27185894  0.19351215  0.09092624     0.84500
O54         O  0.25358623  0.29495701  0.19856519    -0.77600
C55         C  0.19753492  0.19482808  0.17508869     0.84600
C56         C  0.20033456  0.27470321  0.09299332     0.84900
O57         O  0.19148397  0.26822557  0.11808400    -0.80000
O58         O  0.80877804  0.24114475  0.10889913    -0.77500
C59         C  0.80871423  0.19230037  0.18632998     0.83500
O60         O  0.71031987  0.21173981  0.11738994    -0.78600
O61         O  0.73156101  0.23077758  0.21954894    -0.80100
O62         O  0.78111667  0.31160836  0.18120940    -0.79900
O63         O  0.80153499  0.28803953  0.11473363    -0.78500
Zn64       Zn  0.78076420  0.22084522  0.13444198     1.55700
O65         O  0.78216049  0.28045085  0.21749881    -0.79900
Cd66       Cd  0.76932265  0.28808432  0.14555330     1.59700
Cd67       Cd  0.71691425  0.24224623  0.14891990     1.59600
O68         O  0.73406539  0.31016041  0.13062329    -0.79900
O69         O  0.75893070  0.24817672  0.15662869    -1.90400
Cd70       Cd  0.76840230  0.24270961  0.19828134     1.59900
O71         O  0.69725332  0.27993902  0.13515598    -0.79900
O72         O  0.79866321  0.21033977  0.20432054    -0.78500
C73         C  0.72827519  0.19582243  0.10431497     0.84000
C74         C  0.81457358  0.26709694  0.10280872     0.83700
O75         O  0.80273742  0.19370278  0.15969430    -0.77500
C76         C  0.78474688  0.30580232  0.20767565     0.84500
O77         O  0.75511771  0.19726970  0.10924986    -0.77600
C78         C  0.70738418  0.30455174  0.12896933     0.84600
C79         C  0.70583452  0.22544772  0.21193069     0.84900
O80         O  0.69715338  0.22804349  0.18606644    -0.80000
O81         O  0.80839088  0.80638539  0.15271859    -0.77500
C82         C  0.80983666  0.73109620  0.09784905     0.83500
O83         O  0.71381837  0.80019847  0.10937935    -0.78600
O84         O  0.72733327  0.69782207  0.13067003    -0.80100
O85         O  0.77686307  0.73300706  0.21464095    -0.79900
O86         O  0.79425864  0.80060391  0.19800128    -0.78500
Zn87       Zn  0.78224883  0.78278273  0.12785463     1.55700
O88         O  0.77615203  0.69830030  0.18155268    -0.79900
Cd89       Cd  0.76298292  0.76909127  0.19278278     1.59700
Cd90       Cd  0.71558684  0.76862592  0.14035195     1.59600
O91         O  0.72473995  0.78214304  0.21182946    -0.79900
O92         O  0.75648284  0.75998876  0.15107725    -1.90400
Cd93       Cd  0.76427028  0.71843497  0.14390189     1.59900
O94         O  0.69306976  0.78360368  0.17577738    -0.79900
O95         O  0.79596218  0.71277433  0.11268052    -0.78500
C96         C  0.73369151  0.81501482  0.09794045     0.84000
C97         C  0.81054033  0.81224230  0.17935459     0.83700
O98         O  0.80631878  0.75797250  0.10148330    -0.77500
C99         C  0.78010737  0.70689992  0.20723955     0.84500
O100        O  0.76009061  0.81067090  0.10356740    -0.77600
C101        C  0.69951220  0.78694480  0.20219016     0.84600
C102        C  0.70203517  0.70598828  0.12413307     0.84900
O103        O  0.69443628  0.73224291  0.12534129    -0.80000
O104        O  0.29898966  0.70184242  0.15964282    -0.77500
C105        C  0.29451294  0.77632579  0.21291342     0.83500
O106        O  0.19949275  0.70510802  0.19120136    -0.78600
O107        O  0.21554243  0.80974068  0.17558736    -0.80100
O108        O  0.27208527  0.77558724  0.09416438    -0.79900
O109        O  0.29133129  0.70921775  0.11310776    -0.78500
Zn110      Zn  0.26936799  0.72519212  0.18079568     1.55700
O111        O  0.26668836  0.81081158  0.12620509    -0.79900
Cd112      Cd  0.25800194  0.73916191  0.11494566     1.59700
Cd113      Cd  0.20431028  0.73864931  0.16170924     1.59600
O114        O  0.22253203  0.72524035  0.09202568    -0.79900
O115        O  0.24617236  0.74812401  0.15533977    -1.90400
Cd116      Cd  0.25336738  0.78988241  0.16321455     1.59900
O117        O  0.18579622  0.72539204  0.12298705    -0.79900
O118        O  0.28352462  0.79516105  0.19629782    -0.78500
C119        C  0.21882782  0.69150282  0.20507149     0.84000
C120        C  0.30518883  0.69716580  0.13342728     0.83700
O121        O  0.28975509  0.74970826  0.20945877    -0.77500
C122        C  0.27318683  0.80196727  0.10109786     0.84500
O123        O  0.24527961  0.69760663  0.20251371    -0.77600
C124        C  0.19604455  0.72140557  0.09783745     0.84600
C125        C  0.19003456  0.80114761  0.18049281     0.84900
O126        O  0.18257459  0.77498779  0.17711145    -0.80000
N127        N  0.30183595  0.94879857  0.89802340    -0.35600
N128        N  0.30460019  0.99009478  0.85106038    -0.56200
N129        N  0.30503005  0.03694642  0.89120732    -0.35600
N130        N  0.29894096  0.99607880  0.93803240    -0.56200
C131        C  0.29373278  0.93263777  0.87529825     0.28000
C132        C  0.29197036  0.93571203  0.92196084     0.28000
C133        C  0.29896210  0.05048061  0.86623550     0.27900
C134        C  0.29506945  0.05368721  0.91272512     0.27900
C135        C  0.31083514  0.96536638  0.83733012     0.36600
C136        C  0.31360279  0.01151383  0.83376091     0.36600
C137        C  0.30373201  0.97416624  0.95637479     0.36600
C138        C  0.30451640  0.02037504  0.95280197     0.36600
C139        C  0.27842598  0.90903198  0.88490649    -0.20900
C140        C  0.27746020  0.91089406  0.91442068    -0.20900
C141        C  0.28465011  0.07595885  0.87197518    -0.20900
C142        C  0.28229382  0.07802692  0.90136740    -0.20900
C143        C  0.32441869  0.97102796  0.81147784    -0.22000
C144        C  0.32633089  0.00032185  0.80929318    -0.22000
C145        C  0.31298435  0.98455971  0.98270423    -0.22000
C146        C  0.31336035  0.01390026  0.98047524    -0.22000
C147        C  0.30124070  0.93818186  0.84642624    -0.17300
C148        C  0.29674458  0.94536213  0.95034455    -0.17300
C149        C  0.29892710  0.04816422  0.94226520    -0.17300
C150        C  0.30739230  0.04073306  0.83871028    -0.17300
H151        H  0.26881695  0.89224619  0.87206759     0.15600
H152        H  0.26699849  0.89585323  0.92864256     0.15600
H153        H  0.27659353  0.09144004  0.85666465     0.15600
H154        H  0.27225270  0.09544221  0.91302505     0.15600
H155        H  0.33171504  0.95566509  0.79563222     0.13900
H156        H  0.33555573  0.01198385  0.79149048     0.13900
H157        H  0.31840922  0.97234404  0.00169520     0.13900
H158        H  0.31907546  0.02875079  0.99740935     0.13900
H159        H  0.31573345  0.96627030  0.89742797     0.27100
H160        H  0.31800938  0.01887650  0.89359280     0.27100
N161        N  0.99953899  0.30686687  0.94005396    -0.35600
N162        N  0.04380106  0.30234685  0.89639568    -0.56200
N163        N  0.99975482  0.30983620  0.85337965    -0.35600
N164        N  0.95574258  0.31814489  0.89718862    -0.56200
C165        C  0.02353709  0.30838530  0.95632089     0.28000
C166        C  0.97738765  0.31558930  0.95662536     0.28000
C167        C  0.02395731  0.31310952  0.83764157     0.27900
C168        C  0.97791340  0.32143971  0.83816737     0.27900
C169        C  0.05808234  0.29193052  0.91938435     0.36600
C170        C  0.05803536  0.29294588  0.87292745     0.36600
C171        C  0.93884025  0.31271623  0.92010604     0.36600
C172        C  0.93894905  0.31513761  0.87371985     0.36600
C173        C  0.01659736  0.31869232  0.98342230    -0.20900
C174        C  0.98736342  0.32297685  0.98368970    -0.20900
C175        C  0.01745568  0.32762459  0.81245531    -0.20900
C176        C  0.98830952  0.33258521  0.81265101    -0.20900
C177        C  0.08153598  0.27589156  0.91059523    -0.22000
C178        C  0.08134682  0.27627016  0.88109793    -0.22000
C179        C  0.91104329  0.30688422  0.91126807    -0.22000
C180        C  0.91112916  0.30829579  0.88178029    -0.22000
C181        C  0.05078273  0.29784573  0.94815887    -0.17300
C182        C  0.94820881  0.31372401  0.94887352    -0.17300
C183        C  0.94854836  0.31911934  0.84527739    -0.17300
C184        C  0.05098681  0.30093165  0.84449347    -0.17300
H185        H  0.03093890  0.32191964  0.00143849     0.15600
H186        H  0.97477680  0.33004903  0.00191349     0.15600
H187        H  0.03204524  0.33357657  0.79541651     0.15600
H188        H  0.97603647  0.34276355  0.79572933     0.15600
H189        H  0.09695602  0.26482811  0.92402467     0.13900
H190        H  0.09660490  0.26539466  0.86735995     0.13900
H191        H  0.89273159  0.30185489  0.92463718     0.13900
H192        H  0.89287588  0.30438254  0.86793937     0.13900
H193        H  0.99771992  0.29650289  0.92036180     0.27100
H194        H  0.99751806  0.29678247  0.87134227     0.27100
N195        N  0.67606112  0.00520308  0.94584901    -0.35600
N196        N  0.67169646  0.96096033  0.90170026    -0.56200
N197        N  0.68014483  0.00626951  0.85981974    -0.35600
N198        N  0.68154346  0.05019867  0.90355210    -0.56200
C199        C  0.66936041  0.98213681  0.96196113     0.28000
C200        C  0.67364595  0.02856170  0.96288033     0.28000
C201        C  0.67181052  0.98406227  0.84319479     0.27900
C202        C  0.67715128  0.03032470  0.84396052     0.27900
C203        C  0.67723523  0.94448792  0.92489948     0.36600
C204        C  0.67884238  0.94510710  0.87843788     0.36600
C205        C  0.68805747  0.06550964  0.92724562     0.36600
C206        C  0.69053827  0.06586433  0.88097502     0.36600
C207        C  0.66206996  0.99093792  0.98947980    -0.20900
C208        C  0.66479384  0.02028818  0.99006425    -0.20900
C209        C  0.66257942  0.99422602  0.81674383    -0.20900
C210        C  0.66632304  0.02345706  0.81709762    -0.20900
C211        C  0.68707993  0.91775597  0.91637134    -0.22000
C212        C  0.68836285  0.91822404  0.88691989    -0.22000
C213        C  0.70021708  0.09153821  0.91965324    -0.22000
C214        C  0.70179853  0.09175527  0.89023549    -0.22000
C215        C  0.67385119  0.95338617  0.95367828    -0.17300
C216        C  0.68287549  0.05640815  0.95560028    -0.17300
C217        C  0.68734014  0.05752956  0.85212354    -0.17300
C218        C  0.67676145  0.95494854  0.84980035    -0.17300
H219        H  0.65665024  0.97747939  0.00759852     0.15600
H220        H  0.66182229  0.03384987  0.00871274     0.15600
H221        H  0.65518735  0.98170580  0.79860430     0.15600
H222        H  0.66231267  0.03785127  0.79933290     0.15600
H223        H  0.69349105  0.90005519  0.92996485     0.13900
H224        H  0.69618966  0.90094305  0.87353966     0.13900
H225        H  0.70734203  0.10852654  0.93380728     0.13900
H226        H  0.71017353  0.10901512  0.87720751     0.13900
H227        H  0.68626216  0.00447636  0.92610279     0.27100
H228        H  0.69188616  0.00458730  0.87874144     0.27100
N229        N  0.04695101  0.67590325  0.89898292    -0.35600
N230        N  0.00441839  0.67584303  0.85300645    -0.56200
N231        N  0.95973553  0.68140717  0.89633132    -0.35600
N232        N  0.00142926  0.67752298  0.94223325    -0.56200
C233        C  0.06307903  0.66810110  0.87603901     0.28000
C234        C  0.06131136  0.66789507  0.92296816     0.28000
C235        C  0.94410048  0.67545171  0.87261388     0.27900
C236        C  0.94250090  0.67745884  0.91933003     0.27900
C237        C  0.02855919  0.68304957  0.83860830     0.36600
C238        C  0.98210960  0.68544240  0.83701279     0.36600
C239        C  0.02472121  0.68293054  0.95870291     0.36600
C240        C  0.97845971  0.68750171  0.95699202     0.36600
C241        C  0.08787811  0.65461231  0.88554724    -0.20900
C242        C  0.08677638  0.65451064  0.91517170    -0.20900
C243        C  0.91677276  0.66677948  0.88072466    -0.20900
C244        C  0.91565972  0.66844357  0.91026598    -0.20900
C245        C  0.02151313  0.69760973  0.81362062    -0.22000
C246        C  0.99209946  0.69895985  0.81252150    -0.22000
C247        C  0.01641871  0.69630571  0.98402271    -0.22000
C248        C  0.98708790  0.69894895  0.98304024    -0.22000
C249        C  0.05664924  0.67504043  0.84708033    -0.17300
C250        C  0.05314890  0.67492981  0.95148290    -0.17300
C251        C  0.94971736  0.68514004  0.94770911    -0.17300
C252        C  0.95288560  0.68158737  0.84418705    -0.17300
H253        H  0.10516356  0.64608118  0.87256301     0.15600
H254        H  0.10310382  0.64598560  0.92936281     0.15600
H255        H  0.89908981  0.66100258  0.86678458     0.15600
H256        H  0.89705025  0.66422100  0.92350146     0.15600
H257        H  0.03600273  0.70680195  0.79801057     0.13900
H258        H  0.97960223  0.70938242  0.79594046     0.13900
H259        H  0.02999519  0.70385417  0.00129007     0.13900
H260        H  0.97370362  0.70839653  0.99953324     0.13900
H261        H  0.02898090  0.68918512  0.89837823     0.27100
H262        H  0.97943594  0.69188938  0.89660398     0.27100
O263        O  0.28726060  0.75090562  0.58389949    -0.77500
C264        C  0.30147019  0.69553712  0.65543138     0.83500
O265        O  0.19504337  0.70430332  0.60422795    -0.78600
O266        O  0.22441155  0.72312398  0.70303738    -0.80100
O267        O  0.25612392  0.81039825  0.66593796    -0.79900
O268        O  0.27955738  0.79532189  0.59954222    -0.78500
Zn269      Zn  0.26467674  0.72509867  0.61004770     1.55700
O270        O  0.26988604  0.77658828  0.69697159    -0.79900
Cd271      Cd  0.24693913  0.78805202  0.62882291     1.59700
Cd272      Cd  0.20095716  0.73579326  0.63516944     1.59600
O273        O  0.20929674  0.80436092  0.61216661    -0.79900
O274        O  0.24252695  0.74652956  0.63767116    -1.90400
Cd275      Cd  0.25712028  0.73885817  0.67732783     1.59900
O276        O  0.17660884  0.77102671  0.62276001    -0.79900
O277        O  0.29052488  0.70917040  0.67654449    -0.78500
C278        C  0.21289221  0.69274931  0.58698965     0.84000
C279        C  0.29228574  0.77771571  0.58294708     0.83700
O280        O  0.29317311  0.69970429  0.62974237    -0.77500
C281        C  0.26586688  0.80281177  0.69035744     0.84500
O282        O  0.23937128  0.69945501  0.58690562    -0.77600
C283        C  0.18339759  0.79564150  0.61301026     0.84600
C284        C  0.19798767  0.71731827  0.69888600     0.84900
O285        O  0.18599969  0.72052344  0.67441962    -0.80000
N286        N  0.99996447  0.95966083  0.56121767    -0.35600
N287        N  0.95670962  0.00417342  0.55990598    -0.56200
N288        N  0.00309068  0.04590040  0.56809636    -0.35600
N289        N  0.04651997  0.00176491  0.56479562    -0.56200
C290        C  0.97629350  0.94456967  0.55381982     0.28000
C291        C  0.02305189  0.94341072  0.55446702     0.28000
C292        C  0.98054547  0.06317286  0.56206642     0.27900
C293        C  0.02718624  0.06189707  0.56568336     0.27900
C294        C  0.93981057  0.98130251  0.56544734     0.36600
C295        C  0.94142377  0.02752590  0.56775034     0.36600
C296        C  0.06100466  0.97728455  0.57050883     0.36600
C297        C  0.06259644  0.02348441  0.57544053     0.36600
C298        C  0.98434257  0.91858248  0.54186040    -0.20900
C299        C  0.01390648  0.91793944  0.54201617    -0.20900
C300        C  0.99036704  0.09037099  0.55534932    -0.20900
C301        C  0.01984239  0.08952125  0.55742195    -0.20900
C302        C  0.91358201  0.99023148  0.57635338    -0.22000
C303        C  0.91452480  0.01954907  0.57760165    -0.22000
C304        C  0.08647896  0.98351780  0.58464001    -0.22000
C305        C  0.08748383  0.01276317  0.58775955    -0.22000
C306        C  0.94780938  0.95254672  0.56044995    -0.17300
C307        C  0.05169898  0.94950054  0.56261193    -0.17300
C308        C  0.05511807  0.05284227  0.57364325    -0.17300
C309        C  0.95142516  0.05597284  0.56617471    -0.17300
H310        H  0.97033819  0.90162903  0.53441160     0.15600
H311        H  0.02713235  0.90026879  0.53474116     0.15600
H312        H  0.97753715  0.10907353  0.55029867     0.15600
H313        H  0.03416030  0.10743498  0.55399339     0.15600
H314        H  0.89579728  0.97711056  0.58333694     0.13900
H315        H  0.89759051  0.03333304  0.58557884     0.13900
H316        H  0.10240746  0.96858586  0.59256717     0.13900
H317        H  0.10435274  0.02460735  0.59845033     0.13900
H318        H  0.00022542  0.97786283  0.57410785     0.27100
H319        H  0.00175882  0.02580489  0.57758619     0.27100
O320        O  0.30421647  0.29962693  0.64556562    -0.77500
C321        C  0.30948759  0.22898983  0.59077880     0.83500
O322        O  0.20698956  0.28856771  0.60928173    -0.78600
O323        O  0.23177457  0.18684268  0.62040931    -0.80100
O324        O  0.28289442  0.22004088  0.70722910    -0.79900
O325        O  0.29814168  0.28878049  0.69160265    -0.78500
Zn326      Zn  0.27756676  0.27555762  0.62276626     1.55700
O327        O  0.28084162  0.18694465  0.67261051    -0.79900
Cd328      Cd  0.26698956  0.25697503  0.68790616     1.59700
Cd329      Cd  0.21448775  0.25572065  0.63953598     1.59600
O330        O  0.23047098  0.26916520  0.71039145    -0.79900
O331        O  0.25651552  0.24942046  0.64666591    -1.90400
Cd332      Cd  0.26703836  0.20900138  0.63646824     1.59900
O333        O  0.19502363  0.26643299  0.67803249    -0.79900
O334        O  0.29939083  0.20858360  0.60588003    -0.78500
C335        C  0.22518013  0.30511888  0.59721790     0.84000
C336        C  0.31043733  0.30315301  0.67188615     0.83700
O337        O  0.30171146  0.25484136  0.59440846    -0.77500
C338        C  0.28614568  0.19432496  0.69846619     0.84500
O339        O  0.25197738  0.30224537  0.60142431    -0.77600
C340        C  0.20397446  0.27092995  0.70356229     0.84600
C341        C  0.20512573  0.19305276  0.61902962     0.84900
O342        O  0.19550648  0.21776834  0.62589379    -0.80000
O343        O  0.80157754  0.19938000  0.64174440    -0.77500
C344        C  0.80998049  0.27582058  0.69528622     0.83500
O345        O  0.71208025  0.20988981  0.68970044    -0.78600
O346        O  0.72297689  0.31048019  0.66990787    -0.80100
O347        O  0.77403685  0.27840203  0.58436434    -0.79900
O348        O  0.78735731  0.20885379  0.59713723    -0.78500
Zn349      Zn  0.77907617  0.22507160  0.66799800     1.55700
O350        O  0.77215239  0.31210215  0.61841288    -0.79900
Cd351      Cd  0.75873623  0.24210421  0.60471722     1.59700
Cd352      Cd  0.71264991  0.23988348  0.65765110     1.59600
O353        O  0.72029450  0.23092617  0.58613745    -0.79900
O354        O  0.75295135  0.24924335  0.64667116    -1.90400
Cd355      Cd  0.76004403  0.29063317  0.65536405     1.59900
O356        O  0.69021493  0.22414632  0.62283975    -0.79900
O357        O  0.79285476  0.29486504  0.68555544    -0.78500
C358        C  0.73190985  0.19660521  0.70297710     0.84000
C359        C  0.80283358  0.19487413  0.61479985     0.83700
O360        O  0.80718873  0.24938662  0.68917662    -0.77500
C361        C  0.77717253  0.30424954  0.59265647     0.84500
O362        O  0.75835262  0.20028609  0.69702197    -0.77600
C363        C  0.69593521  0.22354897  0.59610448     0.84600
C364        C  0.69769748  0.30163791  0.67549715     0.84900
O365        O  0.69057578  0.27545072  0.67264756    -0.80000
O366        O  0.70313216  0.76040562  0.59918451    -0.77500
C367        C  0.77888864  0.70630328  0.59801957     0.83500
O368        O  0.71020823  0.71911372  0.69389930    -0.78600
O369        O  0.81071882  0.73518413  0.68205886    -0.80100
O370        O  0.78089959  0.82107136  0.62714671    -0.79900
O371        O  0.71147479  0.80593570  0.61089301    -0.78500
Zn372      Zn  0.72740508  0.73621441  0.62537504     1.55700
O373        O  0.81448882  0.78731298  0.63321669    -0.79900
Cd374      Cd  0.74354232  0.80131229  0.64170406     1.59700
Cd375      Cd  0.74025596  0.75145366  0.69106059     1.59600
O376        O  0.72949635  0.82221976  0.67847185    -0.79900
O377        O  0.75069622  0.75976319  0.65032594    -1.90400
Cd378      Cd  0.79230365  0.75056695  0.64457524     1.59900
O379        O  0.72223550  0.78687221  0.70994066    -0.79900
O380        O  0.79766709  0.71988121  0.61257729    -0.78500
C381        C  0.69669066  0.70561795  0.67436117     0.84000
C382        C  0.69833981  0.78710001  0.59602577     0.83700
O383        O  0.75212758  0.71084851  0.60120547    -0.77500
C384        C  0.80700768  0.81271436  0.62638357     0.84500
O385        O  0.70108898  0.71040978  0.64781086    -0.77600
C386        C  0.72087713  0.81313690  0.70281557     0.84600
C387        C  0.80185509  0.73378311  0.70791305     0.84900
O388        O  0.77617340  0.74020727  0.71489547    -0.80000
N389        N  0.50432920  0.46050016  0.70774882    -0.35600
N390        N  0.54710989  0.50462292  0.71223159    -0.56200
N391        N  0.50297348  0.54912173  0.70965670    -0.35600
N392        N  0.46013501  0.50499789  0.70329364    -0.56200
C393        C  0.52851588  0.44530351  0.70213541     0.28000
C394        C  0.48205303  0.44562391  0.69658585     0.28000
C395        C  0.52681641  0.56471558  0.70432012     0.27900
C396        C  0.48017117  0.56505189  0.70122366     0.27900
C397        C  0.56363535  0.48161724  0.71843920     0.36600
C398        C  0.56306795  0.52802908  0.71813609     0.36600
C399        C  0.44324907  0.48154351  0.70421000     0.36600
C400        C  0.44247188  0.52784213  0.70599855     0.36600
C401        C  0.52138760  0.42043799  0.68738596    -0.20900
C402        C  0.49206765  0.42049760  0.68417974    -0.20900
C403        C  0.51898899  0.59119603  0.69317455    -0.20900
C404        C  0.48952797  0.59144077  0.69134046    -0.20900
C405        C  0.58991769  0.49052223  0.72926506    -0.22000
C406        C  0.58972236  0.51996026  0.72861037    -0.22000
C407        C  0.41473784  0.48948686  0.70758332    -0.22000
C408        C  0.41425182  0.51887349  0.70874681    -0.22000
C409        C  0.55670553  0.45320791  0.71041862    -0.17300
C410        C  0.45282165  0.45345897  0.69847387    -0.17300
C411        C  0.45113314  0.55657621  0.70272109    -0.17300
C412        C  0.55533733  0.55613452  0.71025334    -0.17300
H413        H  0.53571347  0.40400128  0.67938696     0.15600
H414        H  0.47961096  0.40398473  0.67363777     0.15600
H415        H  0.53299966  0.60865588  0.68712659     0.15600
H416        H  0.47651740  0.60896311  0.68336889     0.15600
H417        H  0.60781175  0.47723995  0.73585866     0.13900
H418        H  0.60741196  0.53382637  0.73443254     0.13900
H419        H  0.39613871  0.47561668  0.70813838     0.13900
H420        H  0.39522503  0.53213403  0.71042028     0.13900
H421        H  0.50273814  0.47857296  0.72078765     0.27100
H422        H  0.50217656  0.52974065  0.72061666     0.27100
N423        N  0.50966482  0.54617892  0.10098746    -0.35600
N424        N  0.55184825  0.50034262  0.09812791    -0.56200
N425        N  0.50612114  0.45755171  0.09661578    -0.35600
N426        N  0.46429024  0.50332865  0.10280636    -0.56200
C427        C  0.53407253  0.56059047  0.10734651     0.28000
C428        C  0.48739117  0.56207542  0.11082858     0.28000
C429        C  0.52937615  0.44115918  0.10270797     0.27900
C430        C  0.48258441  0.44269978  0.10495960     0.27900
C431        C  0.56876112  0.52314222  0.09221282     0.36600
C432        C  0.56693601  0.47673787  0.09047423     0.36600
C433        C  0.44819220  0.52739850  0.10083301     0.36600
C434        C  0.44628628  0.48107188  0.09820135     0.36600
C435        C  0.52716874  0.58601930  0.12125204    -0.20900
C436        C  0.49770276  0.58702575  0.12328453    -0.20900
C437        C  0.52045215  0.41565826  0.11512907    -0.20900
C438        C  0.49094035  0.41654179  0.11632775    -0.20900
C439        C  0.59448102  0.51399855  0.08034461    -0.22000
C440        C  0.59332807  0.48461753  0.07923351    -0.22000
C441        C  0.41992352  0.52043287  0.09471093    -0.22000
C442        C  0.41874721  0.49108008  0.09287856    -0.22000
C443        C  0.56222078  0.55177790  0.09984104    -0.17300
C444        C  0.45800608  0.55519415  0.10769277    -0.17300
C445        C  0.45376300  0.45195628  0.10204787    -0.17300
C446        C  0.55822416  0.44824964  0.09615525    -0.17300
H447        H  0.54176999  0.60218764  0.12925138     0.15600
H448        H  0.48529844  0.60416025  0.13291722     0.15600
H449        H  0.53374611  0.39826300  0.12285930     0.15600
H450        H  0.47723432  0.39996118  0.12499112     0.15600
H451        H  0.61235087  0.52709204  0.07346784     0.13900
H452        H  0.61016862  0.47066413  0.07136206     0.13900
H453        H  0.40189577  0.53494878  0.09252338     0.13900
H454        H  0.39962961  0.47851577  0.08892561     0.13900
H455        H  0.50816579  0.52794181  0.08818296     0.27100
H456        H  0.50617100  0.47658324  0.08495931     0.27100
N457        N  0.81912828  0.50856011  0.44587599    -0.35600
N458        N  0.82298220  0.46228255  0.40453886    -0.56200
N459        N  0.81797566  0.50507405  0.35901490    -0.35600
N460        N  0.81785126  0.55132282  0.40067285    -0.56200
C461        C  0.82650261  0.48625744  0.46286859     0.28000
C462        C  0.82428284  0.53283658  0.46084483     0.28000
C463        C  0.82587738  0.48141293  0.34414585     0.27900
C464        C  0.82324744  0.52802350  0.34212075     0.27900
C465        C  0.81476104  0.44788213  0.42834282     0.36600
C466        C  0.81493784  0.44599097  0.38189963     0.36600
C467        C  0.81010611  0.56766443  0.42336887     0.36600
C468        C  0.80995720  0.56596510  0.37692355     0.36600
C469        C  0.83730329  0.49652985  0.48868014    -0.20900
C470        C  0.83555418  0.52598514  0.48753616    -0.20900
C471        C  0.83682647  0.48943289  0.31766289    -0.20900
C472        C  0.83510986  0.51889138  0.31636264    -0.20900
C473        C  0.80127350  0.42250706  0.42071785    -0.22000
C474        C  0.80150855  0.42126359  0.39130517    -0.22000
C475        C  0.79776536  0.59304842  0.41405979    -0.22000
C476        C  0.79743036  0.59187345  0.38460668    -0.22000
C477        C  0.82004618  0.45728290  0.45676136    -0.17300
C478        C  0.81535654  0.56041219  0.45228431    -0.17300
C479        C  0.81509642  0.55654310  0.34851341    -0.17300
C480        C  0.82043171  0.45292666  0.35293354    -0.17300
H481        H  0.84469241  0.48411008  0.50686254     0.15600
H482        H  0.84114806  0.54061229  0.50470208     0.15600
H483        H  0.84460492  0.47549563  0.30076457     0.15600
H484        H  0.84138818  0.53204540  0.29830477     0.15600
H485        H  0.79157382  0.40678707  0.43471346     0.13900
H486        H  0.79211218  0.40443146  0.37836705     0.13900
H487        H  0.78977597  0.61055787  0.42708136     0.13900
H488        H  0.78873985  0.60820886  0.37059405     0.13900
H489        H  0.80698810  0.50719656  0.42715376     0.27100
H490        H  0.80597539  0.50523595  0.37785873     0.27100
N491        N  0.54251096  0.82396139  0.39862747    -0.35600
N492        N  0.49923651  0.82808164  0.35371332    -0.56200
N493        N  0.45634404  0.82620789  0.39897999    -0.35600
N494        N  0.49969675  0.82546315  0.44376276    -0.56200
C495        C  0.55832849  0.83079462  0.37529046     0.28000
C496        C  0.55862708  0.83002022  0.42205668     0.28000
C497        C  0.43973979  0.83241885  0.37598279     0.27900
C498        C  0.44010365  0.83033758  0.42266377     0.27900
C499        C  0.52218582  0.82000314  0.33783132     0.36600
C500        C  0.47560910  0.82183158  0.33800793     0.36600
C501        C  0.52297284  0.81824649  0.45947329     0.36600
C502        C  0.47658511  0.81804805  0.45953027     0.36600
C503        C  0.58445062  0.84213950  0.38406884    -0.20900
C504        C  0.58475713  0.84132971  0.41361833    -0.20900
C505        C  0.41278475  0.84117252  0.38519229    -0.20900
C506        C  0.41298416  0.83973954  0.41469693    -0.20900
C507        C  0.51302085  0.80876988  0.31177611    -0.22000
C508        C  0.48350704  0.81024227  0.31178006    -0.22000
C509        C  0.51468530  0.80694027  0.48569466    -0.22000
C510        C  0.48516646  0.80678664  0.48571923    -0.22000
C511        C  0.55112087  0.82351426  0.34664187    -0.17300
C512        C  0.55150036  0.82252428  0.45049670    -0.17300
C513        C  0.44791050  0.82203512  0.45071838    -0.17300
C514        C  0.44706532  0.82660509  0.34713160    -0.17300
H515        H  0.60187577  0.84938430  0.37055210     0.15600
H516        H  0.60241849  0.84769872  0.42733517     0.15600
H517        H  0.39448429  0.84677487  0.37197510     0.15600
H518        H  0.39489834  0.84404784  0.42864910     0.15600
H519        H  0.52602208  0.79994016  0.29467934     0.13900
H520        H  0.46945982  0.80296539  0.29473838     0.13900
H521        H  0.52843242  0.79940107  0.50286635     0.13900
H522        H  0.47159721  0.79916665  0.50294901     0.13900
H523        H  0.52389919  0.81166263  0.39846162     0.27100
H524        H  0.47579526  0.81531867  0.39838871     0.27100
N525        N  0.16104800  0.44803915  0.39730940    -0.35600
N526        N  0.15988944  0.49128834  0.35164845    -0.56200
N527        N  0.16292257  0.53653479  0.39365501    -0.35600
N528        N  0.16473746  0.49341690  0.43923705    -0.56200
C529        C  0.16776201  0.43182369  0.37414376     0.28000
C530        C  0.16856303  0.43286113  0.42096700     0.28000
C531        C  0.16853952  0.55157823  0.36943146     0.27900
C532        C  0.17185329  0.55260726  0.41615350     0.27900
C533        C  0.15632795  0.46737877  0.33568672     0.36600
C534        C  0.15608755  0.51380782  0.33377674     0.36600
C535        C  0.16135914  0.47109138  0.45737295     0.36600
C536        C  0.16296702  0.51738713  0.45540039     0.36600
C537        C  0.17896185  0.40576330  0.38324816    -0.20900
C538        C  0.17944337  0.40642638  0.41276551    -0.20900
C539        C  0.18023421  0.57794520  0.37681357    -0.20900
C540        C  0.18245799  0.57851298  0.40620500    -0.20900
C541        C  0.14982840  0.47472957  0.30756618    -0.22000
C542        C  0.14965473  0.50412570  0.30636095    -0.22000
C543        C  0.15702768  0.48091711  0.48513275    -0.22000
C544        C  0.15816397  0.51027640  0.48390783    -0.22000
C545        C  0.16316042  0.43940656  0.34504986    -0.17300
C546        C  0.16567374  0.44212822  0.44976137    -0.17300
C547        C  0.16954456  0.54514541  0.44548885    -0.17300
C548        C  0.16268746  0.54248193  0.34093618    -0.17300
H549        H  0.18608343  0.38802473  0.37003613     0.15600
H550        H  0.18721874  0.38946048  0.42658852     0.15600
H551        H  0.18645217  0.59521620  0.36267046     0.15600
H552        H  0.19070090  0.59620665  0.41878616     0.15600
H553        H  0.14683176  0.46044259  0.28948524     0.13900
H554        H  0.14656924  0.51678726  0.28715553     0.13900
H555        H  0.15441395  0.46823470  0.50440295     0.13900
H556        H  0.15663723  0.52467576  0.50208940     0.13900
H557        H  0.14978370  0.46729066  0.39701157     0.27100
H558        H  0.15135444  0.51756838  0.39499386     0.27100
N559        N  0.50377140  0.17318993  0.44076171    -0.35600
N560        N  0.54696147  0.17120870  0.39668088    -0.56200
N561        N  0.50354384  0.16882663  0.35200027    -0.35600
N562        N  0.46023180  0.17219936  0.39620558    -0.56200
C563        C  0.52700649  0.18301513  0.45514360     0.28000
C564        C  0.48037124  0.18242284  0.45512580     0.28000
C565        C  0.52736530  0.17588763  0.33702878     0.27900
C566        C  0.48066795  0.17840948  0.33683180     0.27900
C567        C  0.56319281  0.16672401  0.42027708     0.36600
C568        C  0.56301376  0.16294779  0.37404194     0.36600
C569        C  0.44329151  0.16904565  0.41947230     0.36600
C570        C  0.44317173  0.16853434  0.37304265     0.36600
C571        C  0.51818672  0.19876366  0.47887592    -0.20900
C572        C  0.48869587  0.19804465  0.47907411    -0.20900
C573        C  0.51953357  0.18995963  0.31197235    -0.20900
C574        C  0.49002191  0.19136599  0.31175514    -0.20900
C575        C  0.58937997  0.15477404  0.41271410    -0.22000
C576        C  0.58927928  0.15238869  0.38331597    -0.22000
C577        C  0.41542751  0.16273977  0.41111592    -0.22000
C578        C  0.41532334  0.16257168  0.38159483    -0.22000
C579        C  0.55577318  0.17683036  0.44779936    -0.17300
C580        C  0.45177595  0.17624623  0.44759153    -0.17300
C581        C  0.45161944  0.17496251  0.34475940    -0.17300
C582        C  0.55579187  0.16918384  0.34533188    -0.17300
H583        H  0.53146099  0.20977211  0.49443469     0.15600
H584        H  0.47495865  0.20821175  0.49483815     0.15600
H585        H  0.53353443  0.19871265  0.29568039     0.15600
H586        H  0.47698118  0.20108316  0.29514443     0.15600
H587        H  0.60699590  0.14914785  0.42681036     0.13900
H588        H  0.60690252  0.14479237  0.37019611     0.13900
H589        H  0.39685688  0.16007347  0.42481561     0.13900
H590        H  0.39668940  0.15965707  0.36799145     0.13900
H591        H  0.50379888  0.15865232  0.42374969     0.27100
H592        H  0.50293311  0.15601271  0.37030312     0.27100
C593        C  0.61276837  0.79570159  0.49837162     0.16900
C594        C  0.63435658  0.77961113  0.51168768    -0.32100
C595        C  0.64738906  0.79125255  0.53615443     0.21300
C596        C  0.63958167  0.81790451  0.54684902     0.03500
C597        C  0.61763883  0.83390485  0.53371928    -0.21800
C598        C  0.60436926  0.82210569  0.50931037     0.12700
S599        S  0.59455238  0.78513928  0.46842129    -0.05500
C600        C  0.57509561  0.81638528  0.47081184    -0.09000
C601        C  0.58245363  0.83405947  0.49360236    -0.25600
S602        S  0.65863572  0.82828094  0.57653991    -0.02800
C603        C  0.67678488  0.79607650  0.57471495    -0.16200
C604        C  0.66849637  0.77856841  0.55215057    -0.14200
H605        H  0.64069931  0.75885998  0.50335471     0.21100
H606        H  0.61118905  0.85457783  0.54214991     0.17200
H607        H  0.57225359  0.85438712  0.49837897     0.19700
H608        H  0.67747763  0.75759718  0.54767856     0.13100
C609        C  0.78589117  0.61208247  0.50889249     0.16900
C610        C  0.76850669  0.62812900  0.52735622    -0.32100
C611        C  0.78186603  0.64877258  0.54457685     0.21300
C612        C  0.81128829  0.65321419  0.54377011     0.03500
C613        C  0.82875933  0.63713879  0.52519580    -0.21800
C614        C  0.81532999  0.61656871  0.50772466     0.12700
S615        S  0.77351970  0.58623433  0.48620441    -0.05500
C616        C  0.80829638  0.58153584  0.47479996    -0.09000
C617        C  0.82838871  0.59901127  0.48800003    -0.25600
S618        S  0.82309223  0.67945252  0.56660641    -0.02800
C619        C  0.78791096  0.68459329  0.57693318    -0.16200
C620        C  0.76838866  0.66667948  0.56346062    -0.14200
H621        H  0.74551007  0.62477819  0.52815299     0.21100
H622        H  0.85172746  0.64060172  0.52429251     0.17200
H623        H  0.85116382  0.59885578  0.48333521     0.19700
H624        H  0.74543547  0.66678086  0.56723939     0.13100
C625        C  0.64321474  0.65172990  0.70593068     0.16900
C626        C  0.62536152  0.63509958  0.72348730    -0.32100
C627        C  0.60951042  0.61317015  0.71032048     0.21300
C628        C  0.61150766  0.60796405  0.68102115     0.03500
C629        C  0.62915402  0.62469162  0.66349364    -0.21800
C630        C  0.64483094  0.64667356  0.67661108     0.12700
S631        S  0.66451703  0.67909830  0.71767611    -0.05500
C632        C  0.67554165  0.68380353  0.68266501    -0.09000
C633        C  0.66316411  0.66512571  0.66311844    -0.25600
S634        S  0.59048533  0.58067882  0.66893487    -0.02800
C635        C  0.57856488  0.57648546  0.70360164    -0.16200
C636        C  0.59045698  0.59507760  0.72348701    -0.14200
H637        H  0.62385415  0.63910814  0.74635230     0.21100
H638        H  0.63053566  0.62079412  0.64059680     0.17200
H639        H  0.66762112  0.66481692  0.64028791     0.19700
H640        H  0.58498443  0.59566202  0.74607947     0.13100
C641        C  0.80631084  0.35248541  0.53280610     0.16900
C642        C  0.81934068  0.36409419  0.50832721    -0.32100
C643        C  0.81607100  0.39360105  0.50355577     0.21300
C644        C  0.80034140  0.41071627  0.52215395     0.03500
C645        C  0.78807568  0.39929605  0.54707055    -0.21800
C646        C  0.79149317  0.36985764  0.55194426     0.12700
S647        S  0.80626769  0.31695819  0.54160669    -0.05500
C648        C  0.78675314  0.32578116  0.57177969    -0.09000
C649        C  0.78053560  0.35470086  0.57455402    -0.25600
S650        S  0.79627536  0.44527056  0.51102592    -0.02800
C651        C  0.81635436  0.43681516  0.48102923    -0.16200
C652        C  0.82595049  0.40861021  0.48033229    -0.14200
H653        H  0.83093273  0.35062275  0.49331991     0.21100
H654        H  0.77580518  0.41263297  0.56165442     0.17200
H655        H  0.76811919  0.36403116  0.59187866     0.19700
H656        H  0.83840169  0.39926067  0.46304733     0.13100
C657        C  0.62012385  0.20103246  0.49338063     0.16900
C658        C  0.64564481  0.21293500  0.50365637    -0.32100
C659        C  0.65148996  0.21004721  0.53296572     0.21300
C660        C  0.63265721  0.19628021  0.55141534     0.03500
C661        C  0.60728303  0.18395769  0.54102914    -0.21800
C662        C  0.60162869  0.18649421  0.51156096     0.12700
S663        S  0.60881195  0.20312859  0.45870366    -0.05500
C664        C  0.57906219  0.18350716  0.46850555    -0.09000
C665        C  0.57818414  0.17602248  0.49731678    -0.25600
S666        S  0.64329138  0.19620096  0.58650737    -0.02800
C667        C  0.67363286  0.21440264  0.57592500    -0.16200
C668        C  0.67515762  0.22023725  0.54685451    -0.14200
H669        H  0.66023480  0.22410537  0.48945792     0.21100
H670        H  0.59256297  0.17302056  0.55526953     0.17200
H671        H  0.56106816  0.16395130  0.50733554     0.19700
H672        H  0.69247414  0.23173539  0.53649349     0.13100
C673        C  0.63487196  0.34850945  0.70154577     0.16900
C674        C  0.60934254  0.35984476  0.71299431    -0.32100
C675        C  0.60353902  0.38902153  0.70808839     0.21300
C676        C  0.62214682  0.40592133  0.69223754     0.03500
C677        C  0.64783236  0.39478980  0.68139487    -0.21800
C678        C  0.65377869  0.36585264  0.68654139     0.12700
S679        S  0.64542765  0.31340361  0.70359251    -0.05500
C680        C  0.67586463  0.32257312  0.68461247    -0.09000
C681        C  0.67743264  0.35121948  0.67714281    -0.25600
S682        S  0.61057561  0.44008932  0.68673102    -0.02800
C683        C  0.58050705  0.43210673  0.70674630    -0.16200
C684        C  0.57970748  0.40406352  0.71683058    -0.14200
H685        H  0.59450322  0.34646318  0.72480126     0.21100
H686        H  0.66238418  0.40803532  0.66907802     0.17200
H687        H  0.69459811  0.36067932  0.66467417     0.19700
H688        H  0.56228025  0.39504519  0.72925263     0.13100
C689        C  0.39894393  0.18049438  0.51005001     0.16900
C690        C  0.38230543  0.17585280  0.53461129    -0.32100
C691        C  0.36404255  0.19805370  0.54342427     0.21300
C692        C  0.36282104  0.22392533  0.52879060     0.03500
C693        C  0.37945987  0.22859258  0.50428141    -0.21800
C694        C  0.39727257  0.20621043  0.49516281     0.12700
S695        S  0.42246901  0.15628023  0.49584936    -0.05500
C696        C  0.42954576  0.18095358  0.46944443    -0.09000
C697        C  0.41476653  0.20654142  0.47167788    -0.25600
S698        S  0.33948655  0.24822054  0.54291265    -0.02800
C699        C  0.33080314  0.22302960  0.56846159    -0.16200
C700        C  0.34558820  0.19737031  0.56624667    -0.14200
H701        H  0.38337746  0.15576551  0.54619767     0.21100
H702        H  0.37838831  0.24868463  0.49269532     0.17200
H703        H  0.41720908  0.22452929  0.45720445     0.19700
H704        H  0.34299951  0.17926866  0.58054759     0.13100
C705        C  0.17048967  0.38339557  0.50781577     0.16900
C706        C  0.16634693  0.35992480  0.52627864    -0.32100
C707        C  0.18885776  0.35262392  0.54507688     0.21300
C708        C  0.21423245  0.36815613  0.54543423     0.03500
C709        C  0.21819224  0.39179918  0.52737725    -0.21800
C710        C  0.19582974  0.39896710  0.50857915     0.12700
S711        S  0.14647283  0.39503717  0.48248434    -0.05500
C712        C  0.17085309  0.42113945  0.47312385    -0.09000
C713        C  0.19609772  0.42071655  0.48884493    -0.25600
S714        S  0.23964367  0.35517627  0.56827806    -0.02800
C715        C  0.21602943  0.32835165  0.57769954    -0.16200
C716        C  0.18961864  0.32982044  0.56387249    -0.14200
H717        H  0.14668249  0.34759091  0.52563898     0.21100
H718        H  0.23810741  0.40375770  0.52757359     0.17200
H719        H  0.21383912  0.43534929  0.48565177     0.19700
H720        H  0.17240551  0.31449507  0.56660176     0.13100
C721        C  0.36544469  0.35758835  0.69992675     0.16900
C722        C  0.38347274  0.37532970  0.71617954    -0.32100
C723        C  0.39991432  0.39564685  0.70134905     0.21300
C724        C  0.39846858  0.39826996  0.67168205     0.03500
C725        C  0.38060635  0.38045544  0.65546069    -0.21800
C726        C  0.36422979  0.36016127  0.67028179     0.12700
S727        S  0.34328795  0.33186369  0.71371802    -0.05500
C728        C  0.33230667  0.32465748  0.67912402    -0.09000
C729        C  0.34540521  0.34127388  0.65825593    -0.25600
S730        S  0.41991291  0.42431841  0.65767741    -0.02800
C731        C  0.43113198  0.43142849  0.69212820    -0.16200
C732        C  0.41876053  0.41472424  0.71324306    -0.14200
H733        H  0.38457303  0.37345403  0.73933532     0.21100
H734        H  0.37943873  0.38238756  0.63230677     0.17200
H735        H  0.34112692  0.33985119  0.63542085     0.19700
H736        H  0.42344772  0.41643938  0.73596712     0.13100
C737        C  0.87261704  0.85959434  0.61080415     0.16900
C738        C  0.89964056  0.87269949  0.61049179    -0.32100
C739        C  0.90455709  0.89388194  0.58978260     0.21300
C740        C  0.88361346  0.90159763  0.57003709     0.03500
C741        C  0.85641158  0.88868084  0.57054445    -0.21800
C742        C  0.85136056  0.86768775  0.59153500     0.12700
S743        S  0.86283380  0.83290764  0.63378561    -0.05500
C744        C  0.82954447  0.83293334  0.61768401    -0.09000
C745        C  0.82634065  0.85271062  0.59568947    -0.25600
S746        S  0.89374658  0.92834424  0.54712029    -0.02800
C747        C  0.92619670  0.92966619  0.56501334    -0.16200
C748        C  0.92904857  0.90978801  0.58689381    -0.14200
H749        H  0.91609524  0.86672750  0.62582391     0.21100
H750        H  0.83985418  0.89488824  0.55542373     0.17200
H751        H  0.80703751  0.85541348  0.58297809     0.19700
H752        H  0.94761506  0.90804523  0.60082246     0.13100
C753        C  0.85214124  0.13949417  0.57851281     0.16900
C754        C  0.86630649  0.12017279  0.56017248    -0.32100
C755        C  0.89147652  0.10706926  0.57050785     0.21300
C756        C  0.90204054  0.11308971  0.59774386     0.03500
C757        C  0.88770422  0.13194187  0.61609030    -0.21800
C758        C  0.86260008  0.14482811  0.60589703     0.12700
S759        S  0.82180790  0.15854759  0.57015603    -0.05500
C760        C  0.82329229  0.17334959  0.60411400    -0.09000
C761        C  0.84604205  0.16389428  0.62071053    -0.25600
S762        S  0.93270910  0.09534248  0.60661566    -0.02800
C763        C  0.93125178  0.07924569  0.57348155    -0.16200
C764        C  0.90820315  0.08732931  0.55641562    -0.14200
H765        H  0.85816225  0.11563960  0.53885455     0.21100
H766        H  0.89580525  0.13641167  0.63744533     0.17200
H767        H  0.85060422  0.17108274  0.64237407     0.19700
H768        H  0.90370705  0.07876615  0.53525850     0.13100
C769        C  0.15918639  0.13065420  0.59045600     0.16900
C770        C  0.14797565  0.10640965  0.57647485    -0.32100
C771        C  0.11933610  0.09890279  0.58228155     0.21300
C772        C  0.10281066  0.11458456  0.60146401     0.03500
C773        C  0.11387013  0.13895787  0.61511407    -0.21800
C774        C  0.14225982  0.14672293  0.60896054     0.12700
S775        S  0.19354378  0.14317813  0.58691786    -0.05500
C776        C  0.18461307  0.17078802  0.60993748    -0.09000
C777        C  0.15661052  0.16989618  0.61993096    -0.25600
S778        S  0.06893540  0.10167125  0.60635656    -0.02800
C779        C  0.07664793  0.07509549  0.58172005    -0.16200
C780        C  0.10435979  0.07630209  0.57069924    -0.14200
H781        H  0.16098481  0.09395541  0.56175655     0.21100
H782        H  0.10087790  0.15137032  0.62988856     0.17200
H783        H  0.14739036  0.18515578  0.63487602     0.19700
H784        H  0.11302442  0.06142799  0.55505952     0.13100
C785        C  0.20200782  0.59797954  0.49910498     0.16900
C786        C  0.22030465  0.61464458  0.51602109    -0.32100
C787        C  0.20769994  0.63499356  0.53414888     0.21300
C788        C  0.17816127  0.63848376  0.53576053     0.03500
C789        C  0.15977978  0.62179860  0.51874706    -0.21800
C790        C  0.17243070  0.60160216  0.50030624     0.12700
S791        S  0.21333258  0.57237250  0.47560814    -0.05500
C792        C  0.17789696  0.56672800  0.46704546    -0.09000
C793        C  0.15838178  0.58362885  0.48176245    -0.25600
S794        S  0.16733507  0.66439538  0.55940315    -0.02800
C795        C  0.20304635  0.67076051  0.56669454    -0.16200
C796        C  0.22205301  0.65347164  0.55173609    -0.14200
H797        H  0.24339363  0.61199726  0.51496205     0.21100
H798        H  0.13670424  0.62454472  0.51970855     0.17200
H799        H  0.13531053  0.58274771  0.47898437     0.19700
H800        H  0.24522355  0.65434990  0.55365326     0.13100
C801        C  0.35125752  0.81276293  0.53742684     0.16900
C802        C  0.37276130  0.83035111  0.52587932    -0.32100
C803        C  0.39035773  0.81858973  0.50439433     0.21300
C804        C  0.38650618  0.79069203  0.49472283     0.03500
C805        C  0.36510497  0.77321259  0.50623224    -0.21800
C806        C  0.34774523  0.78484483  0.52779478     0.12700
S807        S  0.32812342  0.82240576  0.56426715    -0.05500
C808        C  0.31403408  0.78826564  0.56267627    -0.09000
C809        C  0.32646251  0.77074869  0.54211794    -0.25600
S810        S  0.40953586  0.78028979  0.46833238    -0.02800
C811        C  0.42465898  0.81375804  0.47040263    -0.16200
C812        C  0.41249172  0.83202738  0.49045884    -0.14200
H813        H  0.37577479  0.85210305  0.53343436     0.21100
H814        H  0.36222624  0.75138713  0.49882134     0.17200
H815        H  0.32065585  0.74859847  0.53826491     0.19700
H816        H  0.41922423  0.85391138  0.49425619     0.13100
C817        C  0.35986109  0.63749177  0.65728983     0.16900
C818        C  0.37986947  0.61599148  0.65080168    -0.32100
C819        C  0.39618892  0.60486228  0.67350939     0.21300
C820        C  0.39276528  0.61465833  0.70146145     0.03500
C821        C  0.37258841  0.63602139  0.70795989    -0.21800
C822        C  0.35627700  0.64719015  0.68524017     0.12700
S823        S  0.33828987  0.65396555  0.63273299    -0.05500
C824        C  0.32417649  0.67413454  0.66041164    -0.09000
C825        C  0.33574163  0.66819964  0.68719349    -0.25600
S826        S  0.41487847  0.59860381  0.72594051    -0.02800
C827        C  0.42868203  0.57850428  0.69821284    -0.16200
C828        C  0.41677495  0.58397568  0.67153121    -0.14200
H829        H  0.38267299  0.60835831  0.62900188     0.21100
H830        H  0.36980995  0.64368530  0.72974806     0.12400
H831        H  0.32951223  0.67870913  0.70699092     0.19700
H832        H  0.42291874  0.57321908  0.65183874     0.13100
C833        C  0.11831068  0.84301371  0.59653766     0.16900
C834        C  0.09196003  0.85747326  0.59720781    -0.32100
C835        C  0.08976927  0.88311865  0.58172802     0.21300
C836        C  0.11245551  0.89352022  0.56554453     0.03500
C837        C  0.13878974  0.87899007  0.56477056    -0.21800
C838        C  0.14126868  0.85380547  0.58099604     0.12700
S839        S  0.12587818  0.81259405  0.61542272    -0.05500
C840        C  0.16059485  0.81498229  0.60301769    -0.09000
C841        C  0.16566433  0.83784383  0.58473022    -0.25600
S842        S  0.10568442  0.92545957  0.54898736    -0.02800
C843        C  0.07226277  0.92526390  0.56490632    -0.16200
C844        C  0.06667876  0.90124312  0.58145903    -0.14200
H845        H  0.07423091  0.84955837  0.60995819     0.21100
H846        H  0.15681948  0.88742088  0.55280008     0.17200
H847        H  0.18626418  0.84287189  0.57521506     0.19700
H848        H  0.04704170  0.89772747  0.59339059     0.13100
C849        C  0.10621479  0.67397422  0.78056486     0.16900
C850        C  0.11645880  0.67430329  0.75224662    -0.32100
C851        C  0.14268756  0.68806857  0.74704583     0.21300
C852        C  0.15862047  0.69991623  0.76925140     0.03500
C853        C  0.14830782  0.69967100  0.79758935    -0.21800
C854        C  0.12145293  0.68696686  0.80259359     0.12700
S855        S  0.07381821  0.66042990  0.79072125    -0.05500
C856        C  0.07970048  0.67421385  0.82471385    -0.09000
C857        C  0.10638203  0.68716548  0.82798858    -0.25600
S858        S  0.18979152  0.71583122  0.75842811    -0.02800
C859        C  0.18070144  0.70747619  0.72349038    -0.16200
C860        C  0.15509947  0.69257783  0.72069456    -0.14200
H861        H  0.10401057  0.66513628  0.73486452     0.21100
H862        H  0.16020997  0.70984971  0.81478493     0.17200
H863        H  0.11367215  0.69760978  0.84745296     0.19700
H864        H  0.14584298  0.68582661  0.70044077     0.13100
C865        C  0.90082449  0.68888115  0.77990971     0.16900
C866        C  0.88696061  0.68830198  0.75315104    -0.32100
C867        C  0.86170709  0.70451892  0.75013938     0.21300
C868        C  0.85040842  0.72006497  0.77291084     0.03500
C869        C  0.86442618  0.72088466  0.79950289    -0.21800
C870        C  0.88994776  0.70519272  0.80231847     0.12700
S871        S  0.93187792  0.67103584  0.78803306    -0.05500
C872        C  0.93052441  0.68634271  0.82180628    -0.09000
C873        C  0.90698982  0.70406031  0.82621435    -0.25600
S874        S  0.81940941  0.73801441  0.76512151    -0.02800
C875        C  0.82211939  0.72518174  0.73054507    -0.16200
C876        C  0.84567348  0.70761733  0.72562322    -0.14200
H877        H  0.89562390  0.67602235  0.73539637     0.21100
H878        H  0.85596017  0.73344483  0.81715920     0.17200
H879        H  0.90272894  0.71573594  0.84588315     0.19700
H880        H  0.85083194  0.69778795  0.70517623     0.13100
C881        C  0.70037952  0.91223382  0.78332859     0.16900
C882        C  0.71324501  0.90283713  0.75790717    -0.32100
C883        C  0.70699062  0.87503319  0.74867275     0.21300
C884        C  0.68886497  0.85723643  0.76414122     0.03500
C885        C  0.67528510  0.86696883  0.78918186    -0.21800
C886        C  0.68143788  0.89492545  0.79834040     0.12700
S887        S  0.70675777  0.94456475  0.79881846    -0.05500
C888        C  0.68292731  0.93521881  0.82554057    -0.09000
C889        C  0.67097290  0.90818159  0.82243853    -0.25600
S890        S  0.68630352  0.82331461  0.75073918    -0.02800
C891        C  0.70952924  0.83352451  0.72384940    -0.16200
C892        C  0.71849693  0.86170226  0.72520643    -0.14200
H893        H  0.72800436  0.91638639  0.74618103     0.21100
H894        H  0.66111106  0.85316822  0.80132154     0.17200
H895        H  0.65571910  0.89868598  0.83714952     0.19700
H896        H  0.73371410  0.87146576  0.71062336     0.13100
C897        C  0.69883087  0.14745617  0.75952236     0.16900
C898        C  0.68021090  0.13219424  0.77735567    -0.32100
C899        C  0.69234399  0.11204229  0.79596187     0.21300
C900        C  0.72177535  0.10731786  0.79689511     0.03500
C901        C  0.74047333  0.12279241  0.77918709    -0.21800
C902        C  0.72827592  0.14291569  0.76044019     0.12700
S903        S  0.68801271  0.17222884  0.73504944    -0.05500
C904        C  0.72350669  0.17659487  0.72575379    -0.09000
C905        C  0.74266088  0.15973735  0.74110783    -0.25600
S906        S  0.73217403  0.08171669  0.82084430    -0.02800
C907        C  0.69652227  0.07755168  0.82956225    -0.16200
C908        C  0.67769353  0.09503018  0.81478872    -0.14200
H909        H  0.65722894  0.13572952  0.77660121     0.21100
H910        H  0.76344234  0.11916373  0.77984800     0.17200
H911        H  0.76571951  0.15957665  0.73808448     0.19700
H912        H  0.65463441  0.09528683  0.81778993     0.13100
C913        C  0.88866704  0.32173232  0.78825041     0.16900
C914        C  0.86392749  0.32689475  0.77175466    -0.32100
C915        C  0.85765758  0.30747841  0.74952338     0.21300
C916        C  0.87538038  0.28418418  0.74393489     0.03500
C917        C  0.90030117  0.27941155  0.75993521    -0.21800
C918        C  0.90637516  0.29855623  0.78221530     0.12700
S919        S  0.89921593  0.34136541  0.81748482    -0.05500
C920        C  0.92757388  0.31786027  0.82142350    -0.09000
C921        C  0.92878242  0.29638492  0.80098320    -0.25600
S922        S  0.86323065  0.26172966  0.71787442    -0.02800
C923        C  0.83383698  0.28383068  0.71424611    -0.16200
C924        C  0.83380874  0.30763174  0.73213552    -0.14200
H925        H  0.84979708  0.34472591  0.77654588     0.21100
H926        H  0.91392081  0.26102627  0.75576619     0.17200
H927        H  0.94483159  0.27954971  0.80047139     0.19700
H928        H  0.81668471  0.32332619  0.73330224     0.13100
C929        C  0.15695207  0.29002546  0.76854747     0.16900
C930        C  0.14584744  0.29866810  0.79516577    -0.32100
C931        C  0.11618543  0.29575171  0.79950910     0.21300
C932        C  0.09845482  0.28425817  0.77854054     0.03500
C933        C  0.10946299  0.27606068  0.75177879    -0.21800
C934        C  0.13902009  0.27940620  0.74726389     0.12700
S935        S  0.19240764  0.29110507  0.75920249    -0.05500
C936        C  0.18283073  0.27769117  0.72604531    -0.09000
C937        C  0.15369763  0.27257328  0.72274108    -0.25600
S938        S  0.06336341  0.28118187  0.78850296    -0.02800
C939        C  0.07239379  0.29634139  0.82112915    -0.16200
C940        C  0.10131293  0.30312508  0.82378933    -0.14200
H941        H  0.15971603  0.30717543  0.81179036     0.21100
H942        H  0.09562151  0.26733507  0.73524350     0.17200
H943        H  0.14384777  0.26374271  0.70359742     0.19700
H944        H  0.11097953  0.31279415  0.84261086     0.13100
C945        C  0.29898163  0.08727649  0.77065488     0.16900
C946        C  0.29096223  0.09885612  0.74408747    -0.32100
C947        C  0.29671925  0.12793703  0.73928682     0.21300
C948        C  0.31002627  0.14476794  0.75993529     0.03500
C949        C  0.31898065  0.13290302  0.78614819    -0.21800
C950        C  0.31304391  0.10381246  0.79101424     0.12700
S951        S  0.29113775  0.05334703  0.78169165    -0.05500
C952        C  0.30742204  0.06117568  0.81408926    -0.09000
C953        C  0.31839524  0.08881684  0.81577219    -0.25600
S954        S  0.31224272  0.18026034  0.75108929    -0.02800
C955        C  0.29531702  0.17221454  0.71912306    -0.16200
C956        C  0.28870909  0.14345803  0.71563831    -0.14200
H957        H  0.27975201  0.08602652  0.72825984     0.21100
H958        H  0.32914686  0.14600654  0.80244744     0.17200
H959        H  0.32886512  0.09775512  0.83452733     0.19700
H960        H  0.27728589  0.13462547  0.69739231     0.13100
C961        C  0.27256602  0.86697690  0.74114762     0.16900
C962        C  0.27014673  0.89346724  0.75504395    -0.32100
C963        C  0.28258307  0.89606269  0.78230920     0.21300
C964        C  0.29700351  0.87342878  0.79517217     0.03500
C965        C  0.29914698  0.84679275  0.78139114    -0.21800
C966        C  0.28651895  0.84412304  0.75416074     0.12700
S967        S  0.25885873  0.85954810  0.70802300    -0.05500
C968        C  0.27165841  0.82510950  0.71187144    -0.09000
C969        C  0.28594213  0.81993194  0.73748714    -0.25600
S970        S  0.31128501  0.88132774  0.82803834    -0.02800
C971        C  0.29732023  0.91540488  0.82450057    -0.16200
C972        C  0.28248209  0.92007824  0.79910970    -0.14200
H973        H  0.25905969  0.91128206  0.74504304     0.21100
H974        H  0.31017481  0.82896348  0.79142283     0.17200
H975        H  0.29515030  0.79951706  0.74367961     0.19700
H976        H  0.27230874  0.94013142  0.79322534     0.13100
C977        C  0.38702289  0.82591742  0.29020117     0.16900
C978        C  0.36814291  0.83127127  0.26725655    -0.32100
C979        C  0.34760181  0.81019425  0.26074193     0.21300
C980        C  0.34572689  0.78517924  0.27671074     0.03500
C981        C  0.36399543  0.78020668  0.30006803    -0.21800
C982        C  0.38477519  0.80097127  0.30622177     0.12700
S983        S  0.41480269  0.84768831  0.30038903    -0.05500
C984        C  0.42329117  0.82279885  0.32634495    -0.09000
C985        C  0.40537794  0.79918427  0.32711455    -0.25600
S986        S  0.32140890  0.76106476  0.26406104    -0.02800
C987        C  0.31361917  0.78471460  0.23672226    -0.16200
C988        C  0.32881471  0.81025953  0.23791326    -0.14200
H989        H  0.37000436  0.85054603  0.25446825     0.21100
H990        H  0.36273996  0.76050829  0.31228661     0.17200
H991        H  0.40758262  0.78152556  0.34204158     0.19700
H992        H  0.32733186  0.82721035  0.22211252     0.13100
C993        C  0.21203240  0.62974675  0.25864651     0.16900
C994        C  0.21740831  0.60839734  0.27896128    -0.32100
C995        C  0.19390951  0.59314729  0.28955022     0.21300
C996        C  0.16612138  0.59876539  0.28037592     0.03500
C997        C  0.16075451  0.61993018  0.25953776    -0.21800
C998        C  0.18440573  0.63540107  0.24898514     0.12700
S999        S  0.23783790  0.65099853  0.24426946    -0.05500
C1000       C  0.21138140  0.66795700  0.22474761    -0.09000
C1001       C  0.18386820  0.65741756  0.22930904    -0.25600
S1002       S  0.14049286  0.57887511  0.29759687    -0.02800
C1003       C  0.16769828  0.56309550  0.31721085    -0.16200
C1004       C  0.19497440  0.57246141  0.31025392    -0.14200
H1005       H  0.23899006  0.60420054  0.28659337     0.21100
H1006       H  0.13911755  0.62451828  0.25232998     0.17200
H1007       H  0.16464455  0.66545793  0.21896413     0.19700
H1008       H  0.21448317  0.56522475  0.32068526     0.13100
C1009       C  0.36734024  0.64924594  0.10693868     0.16900
C1010       C  0.38880186  0.63487646  0.09133874    -0.32100
C1011       C  0.40480285  0.61369717  0.10568144     0.21300
C1012       C  0.39970168  0.60717446  0.13429525     0.03500
C1013       C  0.37856298  0.62179495  0.14995408    -0.21800
C1014       C  0.36256784  0.64288925  0.13561811     0.12700
S1015       S  0.34482787  0.67495552  0.09336051    -0.05500
C1016       C  0.32901102  0.67728687  0.12677594    -0.09000
C1017       C  0.34080264  0.65900856  0.14712984    -0.25600
S1018       S  0.42045526  0.58001154  0.14754676    -0.02800
C1019       C  0.43628387  0.57748860  0.11426495    -0.16200
C1020       C  0.42599635  0.59676250  0.09407807    -0.14200
H1021       H  0.39260349  0.63971865  0.06892416     0.21100
H1022       H  0.37449231  0.61668214  0.17226426     0.17200
H1023       H  0.33359851  0.65736349  0.16918048     0.19700
H1024       H  0.43322069  0.59783488  0.07200719     0.13100
C1025       C  0.29596007  0.84728047  0.03642835     0.16900
C1026       C  0.30652556  0.85753992  0.01018534    -0.32100
C1027       C  0.29766581  0.88492041  0.00138355     0.21300
C1028       C  0.27901789  0.90125766  0.01790242     0.03500
C1029       C  0.26887224  0.89121937  0.04433544    -0.21800
C1030       C  0.27788714  0.86397530  0.05323407     0.12700
S1031       S  0.30255373  0.81393758  0.05004803    -0.05500
C1032       C  0.28115064  0.82284100  0.07890505    -0.09000
C1033       C  0.26966982  0.85022523  0.07785807    -0.25600
S1034       S  0.27001941  0.93345953  0.00315253    -0.02800
C1035       C  0.29226285  0.92529005  0.97468377    -0.16200
C1036       C  0.30540325  0.89863646  0.97653514    -0.14200
H1037       H  0.32070136  0.84460792  0.99703746     0.21100
H1038       H  0.25433145  0.90397000  0.05726339     0.17200
H1039       H  0.25502368  0.85908701  0.09361594     0.19700
H1040       H  0.31993352  0.88990175  0.96060670     0.13100
C1041       C  0.10232396  0.67694037  0.01832709     0.16900
C1042       C  0.11351875  0.67685468  0.04637084    -0.32100
C1043       C  0.13869297  0.69264952  0.05148539     0.21300
C1044       C  0.15248006  0.70710955  0.02944761     0.03500
C1045       C  0.14120431  0.70733770  0.00156862    -0.21800
C1046       C  0.11570386  0.69225361  0.99664830     0.12700
S1047       S  0.07118171  0.66060153  0.00789303    -0.05500
C1048       C  0.07557360  0.67580380  0.97432286    -0.09000
C1049       C  0.10053966  0.69165058  0.97144188    -0.25600
S1050       S  0.18293256  0.72460139  0.03961549    -0.02800
C1051       C  0.17677973  0.71308311  0.07417281    -0.16200
C1052       C  0.15238836  0.69632153  0.07742003    -0.14200
H1053       H  0.10276227  0.66550990  0.06353717     0.21100
H1054       H  0.15157677  0.71925177  0.98454965     0.17200
H1055       H  0.10657993  0.70324799  0.95224214     0.19700
H1056       H  0.14521344  0.68723103  0.09755852     0.13100
C1057       C  0.79422761  0.60289929  0.28347750     0.16900
C1058       C  0.78183266  0.61437619  0.25861065    -0.32100
C1059       C  0.78825366  0.64290182  0.25182576     0.21300
C1060       C  0.80587995  0.65946464  0.26920371     0.03500
C1061       C  0.81867421  0.64782027  0.29382211    -0.21800
C1062       C  0.81252643  0.61916137  0.30042215     0.12700
S1063       S  0.78811276  0.56915054  0.29606860    -0.05500
C1064       C  0.81067247  0.57688685  0.32440240    -0.09000
C1065       C  0.82238526  0.60419896  0.32371354    -0.25600
S1066       S  0.80977166  0.69408420  0.25797478    -0.02800
C1067       C  0.78811297  0.68581601  0.22915887    -0.16200
C1068       C  0.77825378  0.65783946  0.22861445    -0.14200
H1069       H  0.76759646  0.60171698  0.24528150     0.21100
H1070       H  0.83255706  0.66061009  0.30739397     0.17200
H1071       H  0.83669563  0.61286537  0.33987785     0.19700
H1072       H  0.76405759  0.64909432  0.21238474     0.13100
C1073       C  0.61818897  0.80285018  0.30247532     0.16900
C1074       C  0.64461365  0.79213618  0.29292609    -0.32100
C1075       C  0.65237785  0.79758168  0.26439985     0.21300
C1076       C  0.63449255  0.81274897  0.24603481     0.03500
C1077       C  0.60834627  0.82415082  0.25584585    -0.21800
C1078       C  0.60071412  0.81894885  0.28454345     0.12700
S1079       S  0.60449703  0.79736580  0.33589345    -0.05500
C1080       C  0.57510163  0.81781050  0.32616309    -0.09000
C1081       C  0.57613633  0.82797632  0.29813615    -0.25600
S1082       S  0.64694041  0.81504657  0.21158177    -0.02800
C1083       C  0.67683233  0.79595653  0.22229844    -0.16200
C1084       C  0.67689301  0.78830710  0.25103654    -0.14200
H1085       H  0.65835184  0.77973905  0.30701715     0.21100
H1086       H  0.59439119  0.83616544  0.24164217     0.17200
H1087       H  0.55978159  0.84121657  0.28823420     0.19700
H1088       H  0.69352843  0.77573050  0.26135085     0.13100
C1089       C  0.62798908  0.59982905  0.11439327     0.16900
C1090       C  0.65354112  0.61192909  0.12457013    -0.32100
C1091       C  0.65937681  0.64040734  0.11708780     0.21300
C1092       C  0.64061451  0.65629693  0.10028471     0.03500
C1093       C  0.61530866  0.64394801  0.08952046    -0.21800
C1094       C  0.60946685  0.61537138  0.09700778     0.12700
S1095       S  0.61629175  0.56621244  0.12264770    -0.05500
C1096       C  0.58615068  0.57283130  0.10213040    -0.09000
C1097       C  0.58552813  0.59986876  0.08964646    -0.25600
S1098       S  0.65077025  0.69123160  0.09553830    -0.02800
C1099       C  0.68079973  0.68406667  0.11602116    -0.16200
C1100       C  0.68260579  0.65608683  0.12581976    -0.14200
H1101       H  0.66796997  0.59985645  0.13824921     0.21100
H1102       H  0.60052641  0.65624599  0.07644001     0.17200
H1103       H  0.56813738  0.60792391  0.07645485     0.19700
H1104       H  0.69955364  0.64791638  0.13952077     0.13100
C1105       C  0.86131098  0.69563640  0.04336096     0.16900
C1106       C  0.87834130  0.67697752  0.02683246    -0.32100
C1107       C  0.89488900  0.68893909  0.00464859     0.21300
C1108       C  0.89429867  0.71814305  0.99905955     0.03500
C1109       C  0.87740806  0.73675015  0.01562863    -0.21800
C1110       C  0.86108161  0.72484038  0.03790279     0.12700
S1111       S  0.83960953  0.68555050  0.07123247    -0.05500
C1112       C  0.83033218  0.72111440  0.07570979    -0.09000
C1113       C  0.84351673  0.73954158  0.05642315    -0.25600
S1114       S  0.91613769  0.72866421  0.97161548    -0.02800
C1115       C  0.92648338  0.69344366  0.96778669    -0.16200
C1116       C  0.91346313  0.67459033  0.98671563    -0.14200
H1117       H  0.87880044  0.65418507  0.03117610     0.21100
H1118       H  0.87715751  0.75958248  0.01146071     0.17200
H1119       H  0.84025769  0.76252735  0.05582688     0.19700
H1120       H  0.91787108  0.65181582  0.98767856     0.13100
C1121       C  0.72458078  0.87755590  0.04570027     0.16900
C1122       C  0.72840961  0.90118562  0.02769054    -0.32100
C1123       C  0.70523924  0.90931570  0.01034787     0.21300
C1124       C  0.67928943  0.89473649  0.01089781     0.03500
C1125       C  0.67529254  0.87139461  0.02934038    -0.21800
C1126       C  0.69855094  0.86316202  0.04663069     0.12700
S1127       S  0.75060643  0.86342084  0.06720321    -0.05500
C1128       C  0.72613290  0.83788056  0.07769035    -0.09000
C1129       C  0.69922584  0.84048734  0.06522738    -0.25600
S1130       S  0.65429490  0.90726131  0.98709073    -0.02800
C1131       C  0.67915562  0.93235097  0.97662883    -0.16200
C1132       C  0.70518724  0.93108709  0.99082744    -0.14200
H1133       H  0.74872980  0.91241174  0.02683086     0.21100
H1134       H  0.65514904  0.85984174  0.02981374     0.17200
H1135       H  0.68134577  0.82618851  0.06908353     0.19700
H1136       H  0.72323631  0.94507897  0.98662292     0.13100
C1137       C  0.60942697  0.17560755  0.28299128     0.16900
C1138       C  0.62305541  0.17608026  0.25619153    -0.32100
C1139       C  0.64741816  0.19345966  0.25337259     0.21300
C1140       C  0.65825755  0.20893826  0.27642382     0.03500
C1141       C  0.64462768  0.20850129  0.30314186    -0.21800
C1142       C  0.61984088  0.19181416  0.30570787     0.12700
S1143       S  0.57860741  0.15732841  0.29044554    -0.05500
C1144       C  0.57929116  0.17258291  0.32419110    -0.09000
C1145       C  0.60263932  0.19021187  0.32934050    -0.25600
S1146       S  0.68813173  0.22849822  0.26884467    -0.02800
C1147       C  0.68552014  0.21637640  0.23404275    -0.16200
C1148       C  0.66286783  0.19790916  0.22879287    -0.14200
H1149       H  0.61466048  0.16399725  0.23817853     0.21100
H1150       H  0.65263159  0.22111252  0.32097454     0.17200
H1151       H  0.60624478  0.20203987  0.34905420     0.19700
H1152       H  0.65809292  0.18821226  0.20818744     0.13100
C1153       C  0.81956152  0.38581716  0.30446325     0.16900
C1154       C  0.82170288  0.35811164  0.29292433    -0.32100
C1155       C  0.80706912  0.35252974  0.26717464     0.21300
C1156       C  0.79137797  0.37373133  0.25334062     0.03500
C1157       C  0.78877443  0.40123083  0.26516866    -0.21800
C1158       C  0.80309417  0.40668654  0.29107334     0.12700
S1159       S  0.83553395  0.39687828  0.33554454    -0.05500
C1160       C  0.81897441  0.42972345  0.33102423    -0.09000
C1161       C  0.80256517  0.43184899  0.30624439    -0.25600
S1162       S  0.77612125  0.36312511  0.22179768    -0.02800
C1163       C  0.79054162  0.32959147  0.22752024    -0.16200
C1164       C  0.80626581  0.32691616  0.25266047    -0.14200
H1165       H  0.83416092  0.34162939  0.30357821     0.21100
H1166       H  0.77611338  0.41764972  0.25464948     0.17200
H1167       H  0.79029621  0.45060324  0.30006803     0.19700
H1168       H  0.81671547  0.30740909  0.25975151     0.13100
C1169       C  0.60894631  0.38248208  0.09392114     0.16900
C1170       C  0.62151407  0.35526824  0.09079254    -0.32100
C1171       C  0.64786970  0.35033086  0.10464522     0.21300
C1172       C  0.66150171  0.37186094  0.12004957     0.03500
C1173       C  0.64883775  0.39888205  0.12337807    -0.21800
C1174       C  0.62213250  0.40349959  0.11033141     0.12700
S1175       S  0.57665324  0.39265124  0.07969369    -0.05500
C1176       C  0.58049140  0.42523266  0.09696570    -0.09000
C1177       C  0.60586301  0.42787171  0.11238143    -0.25600
S1178       S  0.69331337  0.36194695  0.13514664    -0.02800
C1179       C  0.68777553  0.32807448  0.12159987    -0.16200
C1180       C  0.66275288  0.32489112  0.10575196    -0.14200
H1181       H  0.61094791  0.33853712  0.07861245     0.21100
H1182       H  0.65910489  0.41542276  0.13607635     0.17200
H1183       H  0.61186929  0.44655643  0.12483251     0.19700
H1184       H  0.65572983  0.30504578  0.09593284     0.13100
C1185       C  0.69285443  0.14717060  0.04813631     0.16900
C1186       C  0.67456259  0.13338832  0.02859175    -0.32100
C1187       C  0.68634236  0.11138867  0.01171925     0.21300
C1188       C  0.71497655  0.10342328  0.01430885     0.03500
C1189       C  0.73319955  0.11725368  0.03367002    -0.21800
C1190       C  0.72149216  0.13925272  0.05037895     0.12700
S1191       S  0.68303387  0.17446822  0.07059280    -0.05500
C1192       C  0.71800034  0.17525946  0.08276440    -0.09000
C1193       C  0.73600170  0.15528939  0.07011398    -0.25600
S1194       S  0.72539710  0.07636479  0.99211675    -0.02800
C1195       C  0.69090942  0.07587123  0.97909564    -0.16200
C1196       C  0.67231675  0.09556890  0.99128312    -0.14200
H1197       H  0.65222761  0.13957483  0.02656864     0.21100
H1198       H  0.75558615  0.11119164  0.03556253     0.17200
H1199       H  0.75859988  0.15268665  0.07503116     0.19700
H1200       H  0.64998189  0.09821652  0.98534327     0.13100
C1201       C  0.89265076  0.31361474  0.00967218     0.16900
C1202       C  0.87203938  0.32011647  0.03065009    -0.32100
C1203       C  0.86225171  0.29758281  0.04800468     0.21300
C1204       C  0.87257333  0.26986559  0.04465485     0.03500
C1205       C  0.89338682  0.26344048  0.02398349    -0.21800
C1206       C  0.90307781  0.28589237  0.00662939     0.12700
S1207       S  0.90692991  0.33766952  0.98597001    -0.05500
C1208       C  0.92707156  0.30997468  0.97211365    -0.09000
C1209       C  0.92295108  0.28372972  0.98518069    -0.25600
S1210       S  0.85724927  0.24529304  0.06686584    -0.02800
C1211       C  0.83667222  0.27260386  0.08097929    -0.16200
C1212       C  0.84172694  0.29933903  0.06903535    -0.14200
H1213       H  0.86377525  0.34168898  0.03312681     0.21100
H1214       H  0.90142848  0.24180259  0.02130436     0.17200
H1215       H  0.93398611  0.26414797  0.97922572     0.19700
H1216       H  0.83050620  0.31883187  0.07491725     0.13100
C1217       C  0.17013341  0.38128502  0.28702381     0.16900
C1218       C  0.16601244  0.35974636  0.26638052    -0.32100
C1219       C  0.19047340  0.34872522  0.25261805     0.21300
C1220       C  0.21776812  0.35862213  0.25925329     0.03500
C1221       C  0.22187092  0.38019984  0.27970064    -0.21800
C1222       C  0.19748552  0.39126851  0.29331084     0.12700
S1223       S  0.14339946  0.39738024  0.30640373    -0.05500
C1224       C  0.16949139  0.41769510  0.32284297    -0.09000
C1225       C  0.19722109  0.41226529  0.31376727    -0.25600
S1226       S  0.24474089  0.34240096  0.24068222    -0.02800
C1227       C  0.21906256  0.32214016  0.22346272    -0.16200
C1228       C  0.19105622  0.32777072  0.23191728    -0.14200
H1229       H  0.14472628  0.35190927  0.26130876     0.21100
H1230       H  0.24316905  0.38799240  0.28482071     0.17200
H1231       H  0.21613700  0.42306156  0.32189997     0.19700
H1232       H  0.17222906  0.31703347  0.22351903     0.13100
C1233       C  0.36194226  0.18328691  0.25005961     0.16900
C1234       C  0.38074839  0.16521068  0.26524219    -0.32100
C1235       C  0.39718119  0.17747213  0.28742230     0.21300
C1236       C  0.39473094  0.20632902  0.29431651     0.03500
C1237       C  0.37604890  0.22429371  0.27916710    -0.21800
C1238       C  0.35992379  0.21215283  0.25689167     0.12700
S1239       S  0.34009363  0.17297189  0.22229303    -0.05500
C1240       C  0.32849120  0.20804713  0.21980306    -0.09000
C1241       C  0.34094678  0.22641131  0.23961766    -0.25600
S1242       S  0.41630283  0.21734218  0.32176802    -0.02800
C1243       C  0.42908225  0.18283462  0.32384454    -0.16200
C1244       C  0.41706741  0.16378981  0.30439279    -0.14200
H1245       H  0.38260473  0.14268277  0.25991606     0.21100
H1246       H  0.37428195  0.24685389  0.28441022     0.17200
H1247       H  0.33624046  0.24909031  0.24142204     0.19700
H1248       H  0.42269973  0.14132062  0.30274016     0.13100
C1249       C  0.36816923  0.35301969  0.09819610     0.16900
C1250       C  0.39159080  0.36649204  0.08479668    -0.32100
C1251       C  0.40261422  0.39149205  0.09763153     0.21300
C1252       C  0.39055491  0.40276598  0.12243680     0.03500
C1253       C  0.36728832  0.38928044  0.13583414    -0.21800
C1254       C  0.35662614  0.36408995  0.12331546     0.12700
S1255       S  0.35186065  0.32218065  0.08655085    -0.05500
C1256       C  0.32986808  0.32387280  0.11630818    -0.09000
C1257       C  0.33484595  0.34741670  0.13385607    -0.25600
S1258       S  0.40677351  0.43320072  0.13473083    -0.02800
C1259       C  0.43027604  0.43078534  0.10626865    -0.16200
C1260       C  0.42562502  0.40742965  0.08832741    -0.14200
H1261       H  0.40097988  0.35772660  0.06540666     0.21100
H1262       H  0.35809425  0.39788059  0.15539676     0.17200
H1263       H  0.32319931  0.35200437  0.15346585     0.19700
H1264       H  0.43838087  0.40248028  0.06952379     0.13100
C1265       C  0.09886206  0.27792100  0.01204650     0.16900
C1266       C  0.11052126  0.26698908  0.03747766    -0.32100
C1267       C  0.13751839  0.27712499  0.04596899     0.21300
C1268       C  0.15254482  0.29696305  0.02971485     0.03500
C1269       C  0.14072963  0.30815467  0.00437956    -0.21800
C1270       C  0.11356205  0.29819090  0.99600678     0.12700
S1271       S  0.06629556  0.26840660  0.99828594    -0.05500
C1272       C  0.07232035  0.29235242  0.97085967    -0.09000
C1273       C  0.09839152  0.30654389  0.97222795    -0.25600
S1274       S  0.18579992  0.30513209  0.04298869    -0.02800
C1275       C  0.17898457  0.28200684  0.07097059    -0.16200
C1276       C  0.15242102  0.26877722  0.06984488    -0.14200
H1277       H  0.09907144  0.25121816  0.05007988     0.21100
H1278       H  0.15225768  0.32378092  0.99167443     0.17200
H1279       H  0.10557590  0.32238352  0.95685654     0.19700
H1280       H  0.14487476  0.25303352  0.08515196     0.13100
C1281       C  0.27004333  0.12884536  0.04045912     0.16900
C1282       C  0.26460570  0.10246978  0.02718864    -0.32100
C1283       C  0.27956552  0.09624849  0.00187125     0.21300
C1284       C  0.29906564  0.11541820  0.99021334     0.03500
C1285       C  0.30410000  0.14207406  0.00321713    -0.21800
C1286       C  0.28908567  0.14835114  0.02856554     0.12700
S1287       S  0.25505484  0.13967065  0.07198543    -0.05500
C1288       C  0.27433120  0.17100171  0.06902708    -0.09000
C1289       C  0.29131353  0.17290828  0.04470207    -0.25600
S1290       S  0.31576500  0.10333393  0.95989869    -0.02800
C1291       C  0.29607174  0.07222953  0.96289385    -0.16200
C1292       C  0.27760036  0.07151353  0.98618844    -0.14200
H1293       H  0.24965946  0.08729537  0.03641335     0.21100
H1294       H  0.31928416  0.15710496  0.99416193     0.17200
H1295       H  0.30494231  0.19094295  0.03947556     0.19700
H1296       H  0.26363558  0.05372572  0.99140903     0.13100
C1297       C  0.13084477  0.84894881  0.21287421     0.16900
C1298       C  0.10766992  0.86054474  0.22827145    -0.32100
C1299       C  0.10227926  0.89003752  0.22548320     0.21300
C1300       C  0.11892324  0.90716587  0.20782240     0.03500
C1301       C  0.14244800  0.89570617  0.19287833    -0.21800
C1302       C  0.14808765  0.86629314  0.19598946     0.12700
S1303       S  0.14058294  0.81355616  0.21282321    -0.05500
C1304       C  0.16867524  0.82233973  0.19046102    -0.09000
C1305       C  0.17002624  0.85120572  0.18335686    -0.25600
S1306       S  0.10760080  0.94195894  0.20577159    -0.02800
C1307       C  0.08034463  0.93358648  0.22944451    -0.16200
C1308       C  0.08048360  0.90515101  0.23832749    -0.14200
H1309       H  0.09427919  0.84712385  0.24166008     0.21100
H1310       H  0.15562661  0.90907484  0.17922580     0.17200
H1311       H  0.18611179  0.86060119  0.16948332     0.19700
H1312       H  0.06483697  0.89583332  0.25274045     0.13100
C1313       C  0.86850462  0.86943302  0.19046666     0.16900
C1314       C  0.88947763  0.89050744  0.18679760    -0.32100
C1315       C  0.90128948  0.90286979  0.21149810     0.21300
C1316       C  0.89287958  0.89452527  0.23879659     0.03500
C1317       C  0.87147295  0.87364368  0.24249346    -0.21800
C1318       C  0.85946397  0.86133377  0.21764738     0.12700
S1319       S  0.85206945  0.85180577  0.16299825    -0.05500
C1320       C  0.83230854  0.83340871  0.18818247    -0.09000
C1321       C  0.83848067  0.84064856  0.21648681    -0.25600
S1322       S  0.91109336  0.91143502  0.26592246    -0.02800
C1323       C  0.92990976  0.92997189  0.24002330    -0.16200
C1324       C  0.92211490  0.92345390  0.21208331    -0.14200
H1325       H  0.89643398  0.89688107  0.16555543     0.21100
H1326       H  0.86465664  0.86713867  0.26373320     0.17200
H1327       H  0.82823160  0.83130607  0.23511691     0.19700
H1328       H  0.93170028  0.93294385  0.19316531     0.13100
C1329       C  0.89359727  0.11306386  0.24582302     0.16900
C1330       C  0.87711432  0.13819527  0.24794970    -0.32100
C1331       C  0.85867476  0.14481652  0.22499541     0.21300
C1332       C  0.85668126  0.12712184  0.20110531     0.03500
C1333       C  0.87263874  0.10175540  0.19926299    -0.21800
C1334       C  0.89111526  0.09523829  0.22207206     0.12700
S1335       S  0.91901596  0.10232922  0.27011595    -0.05500
C1336       C  0.92601070  0.07353976  0.24801472    -0.09000
C1337       C  0.90947091  0.07239051  0.22336100    -0.25600
S1338       S  0.83456577  0.13959401  0.17476043    -0.02800
C1339       C  0.82763654  0.16896793  0.19613573    -0.16200
C1340       C  0.84174761  0.16880855  0.22240030    -0.14200
H1341       H  0.87912322  0.15232670  0.26630952     0.21100
H1342       H  0.87126625  0.08805600  0.18051207     0.17200
H1343       H  0.91170197  0.05629580  0.20671594     0.19700
H1344       H  0.84027698  0.18565466  0.23835987     0.13100
C1345       C  0.14952750  0.13063392  0.19258562     0.16900
C1346       C  0.13687708  0.10351221  0.19441686    -0.32100
C1347       C  0.11320862  0.10039757  0.21265420     0.21300
C1348       C  0.10271835  0.12316410  0.22868502     0.03500
C1349       C  0.11495993  0.15057543  0.22632278    -0.21800
C1350       C  0.13851799  0.15378917  0.20775298     0.12700
S1351       S  0.17917313  0.13821949  0.17261541    -0.05500
C1352       C  0.17656779  0.17315616  0.18427211    -0.09000
C1353       C  0.15369764  0.17852242  0.20262243    -0.25600
S1354       S  0.07423557  0.11449223  0.25011003    -0.02800
C1355       C  0.07576573  0.08004166  0.23637564    -0.16200
C1356       C  0.09779122  0.07579597  0.21677668    -0.14200
H1357       H  0.14524247  0.08554270  0.18225564     0.21100
H1358       H  0.10658618  0.16853350  0.23848602     0.17200
H1359       H  0.14893914  0.19914419  0.21222429     0.19700
H1360       H  0.10186700  0.05586012  0.20553632     0.13100
loop_ 
_geom_bond_atom_site_label_1 
_geom_bond_atom_site_label_2 
_geom_bond_distance 
_geom_bond_site_symmetry_2 
_ccdc_geom_bond_type 
N1            C6   1.355       .  A
N1            C5   1.354   1_455  A
N1           H33   1.042       .  S
N2            C9   1.350       .  A
N2           C10   1.351   1_545  A
N3            C8   1.355       .  A
N3            C7   1.356   1_455  A
N3           H34   1.041       .  S
N4           C11   1.352       .  A
N4           C12   1.352   1_545  A
C5           C13   1.386       .  A
C5           C21   1.413       .  A
C6           C22   1.415       .  A
C6           C14   1.387       .  A
C7           C15   1.388       .  A
C7           C24   1.419       .  A
C8           C23   1.418       .  A
C8           C16   1.387       .  A
C9           C21   1.409       .  A
C9           C17   1.385       .  A
C10          C24   1.412       .  A
C10          C18   1.387       .  A
C11          C19   1.386       .  A
C11          C22   1.414       .  A
C12          C20   1.386       .  A
C12          C23   1.414       .  A
C13          C14   1.373   1_655  A
C13          H25   1.082       .  S
C14          H26   1.081       .  S
C15          C16   1.372   1_655  A
C15          H27   1.081       .  S
C16          H28   1.082       .  S
C17          C18   1.373   1_545  A
C17          H29   1.083       .  S
C18          H30   1.081       .  S
C19          C20   1.375   1_545  A
C19          H31   1.082       .  S
C20          H32   1.082       .  S
C21        C1336   1.478       .  S
C22        C1355   1.494       .  S
C23        C1307   1.495       .  S
C24        C1323   1.485       .  S
O35          C51   1.275       .  A
O35         Zn41   2.016       .  S
C36        C1256   1.478       .  S
C36          O52   1.274       .  A
C36          O49   1.277       .  A
O37          C50   1.275       .  A
O37         Cd44   2.078       .  S
O38          C56   1.276       .  A
O38         Cd47   2.080       .  S
O39          C53   1.272       .  A
O39         Cd43   2.050       .  S
O40          C51   1.276       .  A
O40         Cd43   2.083       .  S
Zn41         O52   2.019       .  S
Zn41         O54   2.000       .  S
Zn41         O46   1.929       .  S
O42          C53   1.277       .  A
O42         Cd47   2.090       .  S
Cd43         O45   2.063       .  S
Cd43         O46   1.996       .  S
Cd44         O48   2.084       .  S
Cd44         O57   2.068       .  S
Cd44         O46   2.009       .  S
O45          C55   1.273       .  A
O46         Cd47   2.016       .  S
Cd47         O49   2.097       .  S
O48          C55   1.274       .  A
C50        C1227   1.470       .  S
C50          O54   1.272       .  A
C51        C1240   1.475       .  S
C53        C1288   1.467       .  S
C55        C1352   1.471       .  S
C56        C1275   1.467       .  S
C56          O57   1.276       .  A
O58          C74   1.273       .  A
O58         Zn64   2.006       .  S
C59        C1339   1.472       .  S
C59          O75   1.272       .  A
C59          O72   1.275       .  A
O60          C73   1.272       .  A
O60         Cd67   2.066       .  S
O61          C79   1.274       .  A
O61         Cd70   2.059       .  S
O62          C76   1.273       .  A
O62         Cd66   2.063       .  S
O63          C74   1.276       .  A
O63         Cd66   2.077       .  S
Zn64         O75   2.007       .  S
Zn64         O77   2.002       .  S
Zn64         O69   1.929       .  S
O65          C76   1.275       .  A
O65         Cd70   2.076       .  S
Cd66         O68   2.057       .  S
Cd66         O69   1.993       .  S
Cd67         O71   2.082       .  S
Cd67         O80   2.070       .  S
Cd67         O69   2.008       .  S
O68          C78   1.272       .  A
O69         Cd70   2.005       .  S
Cd70         O72   2.083       .  S
O71          C78   1.276       .  A
C73        C1192   1.468       .  S
C73          O77   1.273       .  A
C74        C1211   1.470       .  S
C76        C1163   1.468       .  S
C78        C1179   1.467       .  S
C79        C1147   1.462       .  S
C79          O80   1.276       .  A
O81          C97   1.273       .  A
O81         Zn87   2.008       .  S
C82        C1112   1.480       .  S
C82          O98   1.275       .  A
C82          O95   1.276       .  A
O83          C96   1.274       .  A
O83         Cd90   2.064       .  S
O84         C102   1.274       .  A
O84         Cd93   2.065       .  S
O85          C99   1.274       .  A
O85         Cd89   2.070       .  S
O86          C97   1.276       .  A
O86         Cd89   2.085       .  S
Zn87         O98   2.024       .  S
Zn87        O100   2.008       .  S
Zn87         O92   1.936       .  S
O88          C99   1.274       .  A
O88         Cd93   2.064       .  S
Cd89         O91   2.080       .  S
Cd89         O92   2.010       .  S
Cd90         O94   2.075       .  S
Cd90        O103   2.083       .  S
Cd90         O92   2.008       .  S
O91         C101   1.277       .  A
O92         Cd93   1.999       .  S
Cd93         O95   2.088       .  S
O94         C101   1.275       .  A
C96        C1128   1.467       .  S
C96         O100   1.273       .  A
C97        C1320   1.474       .  S
C99        C1067   1.466       .  S
C101       C1083   1.472       .  S
C102       C1099   1.472       .  S
C102        O103   1.275       .  A
O104        C120   1.273       .  A
O104       Zn110   2.013       .  S
C105        C987   1.474       .  S
C105        O121   1.272       .  A
C105        O118   1.277       .  A
O106        C119   1.276       .  A
O106       Cd113   2.096       .  S
O107        C125   1.275       .  A
O107       Cd116   2.070       .  S
O108        C122   1.273       .  A
O108       Cd112   2.065       .  S
O109        C120   1.275       .  A
O109       Cd112   2.088       .  S
Zn110       O121   1.997       .  S
Zn110       O123   1.987       .  S
Zn110       O115   1.927       .  S
O111        C122   1.276       .  A
O111       Cd116   2.077       .  S
Cd112       O114   2.070       .  S
Cd112       O115   2.003       .  S
Cd113       O117   2.091       .  S
Cd113       O126   2.099       .  S
Cd113       O115   2.022       .  S
O114        C124   1.276       .  A
O115       Cd116   2.010       .  S
Cd116       O118   2.098       .  S
O117        C124   1.278       .  A
C119       C1000   1.473       .  S
C119        O123   1.270       .  A
C120       C1016   1.477       .  S
C122       C1032   1.469       .  S
C124       C1051   1.472       .  S
C125       C1304   1.476       .  S
C125        O126   1.279       .  A
N127        C132   1.353       .  A
N127        C131   1.352       .  A
N127        H159   1.042       .  S
N128        C135   1.349       .  A
N128        C136   1.352   1_565  A
N129        C134   1.351       .  A
N129        C133   1.353       .  A
N129        H160   1.042       .  S
N130        C137   1.351       .  A
N130        C138   1.350   1_565  A
C131        C139   1.388       .  A
C131        C147   1.414       .  A
C132        C148   1.413       .  A
C132        C140   1.386       .  A
C133        C141   1.387       .  A
C133        C150   1.415       .  A
C134        C149   1.411       .  A
C134        C142   1.386       .  A
C135        C147   1.411       .  A
C135        C143   1.386       .  A
C136        C150   1.412       .  A
C136        C144   1.386       .  A
C137        C145   1.386       .  A
C137        C148   1.411       .  A
C138        C146   1.386       .  A
C138        C149   1.410       .  A
C139        C140   1.377       .  A
C139        H151   1.082       .  S
C140        H152   1.082       .  S
C141        C142   1.376       .  A
C141        H153   1.082       .  S
C142        H154   1.082       .  S
C143        C144   1.374   1_565  A
C143        H155   1.082       .  S
C144        H156   1.082       .  S
C145        C146   1.373   1_565  A
C145        H157   1.082   1_556  S
C146        H158   1.082       .  S
C147        C971   1.484       .  S
C148       C1035   1.486       .  S
C149       C1291   1.482       .  S
C150        C952   1.492       .  S
N161        C166   1.350       .  A
N161        C165   1.351   1_655  A
N161        H193   1.039       .  S
N162        C169   1.350       .  A
N162        C170   1.351       .  A
N163        C168   1.352       .  A
N163        C167   1.354   1_655  A
N163        H194   1.041       .  S
N164        C171   1.351       .  A
N164        C172   1.350       .  A
C165        C173   1.388       .  A
C165        C181   1.412       .  A
C166        C182   1.408       .  A
C166        C174   1.386       .  A
C167        C175   1.388       .  A
C167        C184   1.416       .  A
C168        C183   1.412       .  A
C168        C176   1.385       .  A
C169        C181   1.409       .  A
C169        C177   1.385       .  A
C170        C184   1.414       .  A
C170        C178   1.387       .  A
C171        C179   1.385       .  A
C171        C182   1.409       .  A
C172        C180   1.387       .  A
C172        C183   1.411       .  A
C173        C174   1.376   1_455  A
C173        H185   1.082   1_556  S
C174        H186   1.082   1_556  S
C175        C176   1.376   1_455  A
C175        H187   1.082       .  S
C176        H188   1.083       .  S
C177        C178   1.373       .  A
C177        H189   1.082       .  S
C178        H190   1.082       .  S
C179        C180   1.374       .  A
C179        H191   1.082       .  S
C180        H192   1.082       .  S
C181       C1272   1.479       .  S
C182       C1208   1.474       .  S
C183        C920   1.479       .  S
C184        C939   1.491       .  S
N195        C200   1.351       .  A
N195        C199   1.350   1_545  A
N195        H227   1.036       .  S
N196        C203   1.351       .  A
N196        C204   1.352       .  A
N197        C202   1.351       .  A
N197        C201   1.350   1_545  A
N197        H228   1.039       .  S
N198        C205   1.348       .  A
N198        C206   1.348       .  A
C199        C207   1.387       .  A
C199        C215   1.410       .  A
C200        C216   1.411       .  A
C200        C208   1.387       .  A
C201        C209   1.388       .  A
C201        C218   1.411       .  A
C202        C217   1.407       .  A
C202        C210   1.385       .  A
C203        C215   1.411       .  A
C203        C211   1.386       .  A
C204        C218   1.414       .  A
C204        C212   1.387       .  A
C205        C213   1.387       .  A
C205        C216   1.408       .  A
C206        C214   1.386       .  A
C206        C217   1.406       .  A
C207        C208   1.376   1_565  A
C207        H219   1.083   1_556  S
C208        H220   1.082   1_556  S
C209        C210   1.375   1_565  A
C209        H221   1.082       .  S
C210        H222   1.082       .  S
C211        C212   1.373       .  A
C211        H223   1.082       .  S
C212        H224   1.081       .  S
C213        C214   1.372       .  A
C213        H225   1.082       .  S
C214        H226   1.082       .  S
C215       C1131   1.472       .  S
C216       C1195   1.469       .  S
C217        C907   1.471       .  S
C218        C888   1.484       .  S
N229        C234   1.354       .  A
N229        C233   1.355       .  A
N229        H261   1.041       .  S
N230        C237   1.353       .  A
N230        C238   1.353   1_455  A
N231        C236   1.352       .  A
N231        C235   1.351       .  A
N231        H262   1.040       .  S
N232        C239   1.352       .  A
N232        C240   1.353   1_455  A
C233        C241   1.387       .  A
C233        C249   1.418       .  A
C234        C250   1.419       .  A
C234        C242   1.388       .  A
C235        C243   1.389       .  A
C235        C252   1.415       .  A
C236        C251   1.409       .  A
C236        C244   1.385       .  A
C237        C249   1.416       .  A
C237        C245   1.387       .  A
C238        C252   1.413       .  A
C238        C246   1.385       .  A
C239        C247   1.388       .  A
C239        C250   1.415       .  A
C240        C248   1.384       .  A
C240        C251   1.410       .  A
C241        C242   1.380       .  A
C241        H253   1.082       .  S
C242        H254   1.082       .  S
C243        C244   1.378       .  A
C243        H255   1.082       .  S
C244        H256   1.082       .  S
C245        C246   1.372   1_455  A
C245        H257   1.082       .  S
C246        H258   1.082       .  S
C247        C248   1.372   1_455  A
C247        H259   1.081   1_556  S
C248        H260   1.082       .  S
C249        C856   1.497       .  S
C250       C1048   1.490       .  S
C251       C1115   1.481       .  S
C252        C872   1.489       .  S
O263        C279   1.274       .  A
O263       Zn269   2.012       .  S
C264        C824   1.471       .  S
C264        O280   1.272       .  A
C264        O277   1.276       .  A
O265        C278   1.274       .  A
O265       Cd272   2.075       .  S
O266        C284   1.275       .  A
O266       Cd275   2.074       .  S
O267        C281   1.274       .  A
O267       Cd271   2.062       .  S
O268        C279   1.273       .  A
O268       Cd271   2.071       .  S
Zn269       O280   2.000       .  S
Zn269       O282   1.995       .  S
Zn269       O274   1.927       .  S
O270        C281   1.275       .  A
O270       Cd275   2.070       .  S
Cd271       O273   2.061       .  S
Cd271       O274   1.992       .  S
Cd272       O276   2.077       .  S
Cd272       O285   2.083       .  S
Cd272       O274   2.004       .  S
O273        C283   1.274       .  A
O274       Cd275   1.999       .  S
Cd275       O277   2.081       .  S
O276        C283   1.276       .  A
C278        C795   1.467       .  S
C278        O282   1.273       .  A
C279        C808   1.471       .  S
C281        C968   1.468       .  S
C283        C840   1.468       .  S
C284        C859   1.475       .  S
C284        O285   1.277       .  A
N286        C291   1.351   1_655  A
N286        C290   1.353       .  A
N286        H318   1.039   1_655  S
N287        C294   1.352   1_545  A
N287        C295   1.350       .  A
N288        C293   1.353       .  A
N288        C292   1.352   1_455  A
N288        H319   1.039       .  S
N289        C296   1.352   1_545  A
N289        C297   1.354       .  A
C290        C298   1.385       .  A
C290        C306   1.411       .  A
C291        C307   1.416       .  A
C291        C299   1.389       .  A
C292        C300   1.386       .  A
C292        C309   1.411       .  A
C293        C308   1.416       .  A
C293        C301   1.387       .  A
C294        C306   1.411       .  A
C294        C302   1.386       .  A
C295        C309   1.409       .  A
C295        C303   1.386       .  A
C296        C304   1.387       .  A
C296        C307   1.415       .  A
C297        C305   1.385       .  A
C297        C308   1.415       .  A
C298        C299   1.377   1_655  A
C298        H310   1.082       .  S
C299        H311   1.082       .  S
C300        C301   1.376   1_655  A
C300        H312   1.083       .  S
C301        H313   1.082       .  S
C302        C303   1.370   1_565  A
C302        H314   1.081       .  S
C303        H315   1.082       .  S
C304        C305   1.373   1_565  A
C304        H316   1.082       .  S
C305        H317   1.082       .  S
C306        C747   1.484       .  S
C307        C843   1.484       .  S
C308        C779   1.492       .  S
C309        C763   1.474       .  S
O320        C336   1.269       .  A
O320       Zn326   1.982       .  S
C321        C699   1.464       .  S
C321        O337   1.270       .  A
C321        O334   1.275       .  A
O322        C335   1.278       .  A
O322       Cd329   2.111       .  S
O323        C341   1.275       .  A
O323       Cd332   2.080       .  S
O324        C338   1.275       .  A
O324       Cd328   2.080       .  S
O325        C336   1.274       .  A
O325       Cd328   2.084       .  S
Zn326       O337   1.984       .  S
Zn326       O339   1.988       .  S
Zn326       O331   1.922       .  S
O327        C338   1.276       .  A
O327       Cd332   2.074       .  S
Cd328       O330   2.076       .  S
Cd328       O331   2.011       .  S
Cd329       O333   2.069       .  S
Cd329       O342   2.079       .  S
Cd329       O331   2.006       .  S
O330        C340   1.276       .  A
O331       Cd332   2.004       .  S
Cd332       O334   2.074       .  S
O333        C340   1.276       .  A
C335        C715   1.477       .  S
C335        O339   1.270       .  A
C336        C728   1.469       .  S
C338        C955   1.474       .  S
C340        C936   1.471       .  S
C341        C776   1.474       .  S
C341        O342   1.277       .  A
O343        C359   1.273       .  A
O343       Zn349   2.006       .  S
C344        C923   1.467       .  S
C344        O360   1.272       .  A
C344        O357   1.276       .  A
O345        C358   1.271       .  A
O345       Cd352   2.047       .  S
O346        C364   1.275       .  A
O346       Cd355   2.071       .  S
O347        C361   1.274       .  A
O347       Cd351   2.069       .  S
O348        C359   1.273       .  A
O348       Cd351   2.073       .  S
Zn349       O360   1.993       .  S
Zn349       O362   2.026       .  S
Zn349       O354   1.932       .  S
O350        C361   1.275       .  A
O350       Cd355   2.071       .  S
Cd351       O353   2.055       .  S
Cd351       O354   1.999       .  S
Cd352       O356   2.062       .  S
Cd352       O365   2.071       .  S
Cd352       O354   1.995       .  S
O353        C363   1.274       .  A
O354       Cd355   2.000       .  S
Cd355       O357   2.084       .  S
O356        C363   1.273       .  A
C358        C904   1.468       .  S
C358        O362   1.274       .  A
C359        C760   1.469       .  S
C361        C648   1.469       .  S
C363        C667   1.463       .  S
C364        C680   1.471       .  S
C364        O365   1.273       .  A
O366        C382   1.273       .  A
O366       Zn372   2.009       .  S
C367        C619   1.471       .  S
C367        O383   1.272       .  A
C367        O380   1.275       .  A
O368        C381   1.272       .  A
O368       Cd375   2.064       .  S
O369        C387   1.275       .  A
O369       Cd378   2.072       .  S
O370        C384   1.277       .  A
O370       Cd374   2.084       .  S
O371        C382   1.275       .  A
O371       Cd374   2.081       .  S
Zn372       O383   1.996       .  S
Zn372       O385   2.013       .  S
Zn372       O377   1.932       .  S
O373        C384   1.275       .  A
O373       Cd378   2.073       .  S
Cd374       O376   2.075       .  S
Cd374       O377   2.007       .  S
Cd375       O379   2.049       .  S
Cd375       O388   2.073       .  S
Cd375       O377   1.997       .  S
O376        C386   1.276       .  A
O377       Cd378   2.002       .  S
Cd378       O380   2.079       .  S
O379        C386   1.271       .  A
C381        C632   1.470       .  S
C381        O385   1.273       .  A
C382        C603   1.471       .  S
C384        C744   1.470       .  S
C386        C891   1.463       .  S
C387        C875   1.469       .  S
C387        O388   1.275       .  A
N389        C394   1.352       .  A
N389        C393   1.355       .  A
N389        H421   1.041       .  S
N390        C397   1.351       .  A
N390        C398   1.350       .  A
N391        C396   1.353       .  A
N391        C395   1.352       .  A
N391        H422   1.040       .  S
N392        C399   1.349       .  A
N392        C400   1.351       .  A
C393        C401   1.388       .  A
C393        C409   1.417       .  A
C394        C410   1.412       .  A
C394        C402   1.386       .  A
C395        C403   1.388       .  A
C395        C412   1.413       .  A
C396        C411   1.411       .  A
C396        C404   1.386       .  A
C397        C409   1.414       .  A
C397        C405   1.387       .  A
C398        C412   1.408       .  A
C398        C406   1.385       .  A
C399        C407   1.387       .  A
C399        C410   1.408       .  A
C400        C408   1.386       .  A
C400        C411   1.409       .  A
C401        C402   1.373       .  A
C401        H413   1.081       .  S
C402        H414   1.082       .  S
C403        C404   1.374       .  A
C403        H415   1.082       .  S
C404        H416   1.082       .  S
C405        C406   1.374       .  A
C405        H417   1.082       .  S
C406        H418   1.082       .  S
C407        C408   1.372       .  A
C407        H419   1.082       .  S
C408        H420   1.082       .  S
C409        C683   1.491       .  S
C410        C731   1.472       .  S
C411        C827   1.476       .  S
C412        C635   1.474       .  S
N423        C428   1.354       .  A
N423        C427   1.354       .  A
N423        H455   1.041       .  S
N424        C431   1.353       .  A
N424        C432   1.353       .  A
N425        C430   1.355       .  A
N425        C429   1.355       .  A
N425        H456   1.041       .  S
N426        C433   1.352       .  A
N426        C434   1.352       .  A
C427        C435   1.388       .  A
C427        C443   1.417       .  A
C428        C444   1.413       .  A
C428        C436   1.386       .  A
C429        C437   1.388       .  A
C429        C446   1.418       .  A
C430        C445   1.416       .  A
C430        C438   1.386       .  A
C431        C443   1.415       .  A
C431        C439   1.386       .  A
C432        C446   1.416       .  A
C432        C440   1.387       .  A
C433        C441   1.386       .  A
C433        C444   1.412       .  A
C434        C442   1.386       .  A
C434        C445   1.413       .  A
C435        C436   1.376       .  A
C435        H447   1.082       .  S
C436        H448   1.082       .  S
C437        C438   1.376       .  A
C437        H449   1.082       .  S
C438        H450   1.082       .  S
C439        C440   1.373       .  A
C439        H451   1.082       .  S
C440        H452   1.082       .  S
C441        C442   1.373       .  A
C441        H453   1.082       .  S
C442        H454   1.082       .  S
C443       C1096   1.490       .  S
C444       C1019   1.481       .  S
C445       C1259   1.488       .  S
C446       C1176   1.492       .  S
N457        C462   1.351       .  A
N457        C461   1.352       .  A
N457        H489   1.040       .  S
N458        C465   1.353       .  A
N458        C466   1.352       .  A
N459        C464   1.352       .  A
N459        C463   1.353       .  A
N459        H490   1.041       .  S
N460        C467   1.351       .  A
N460        C468   1.351       .  A
C461        C469   1.387       .  A
C461        C477   1.414       .  A
C462        C478   1.409       .  A
C462        C470   1.386       .  A
C463        C471   1.387       .  A
C463        C480   1.414       .  A
C464        C479   1.414       .  A
C464        C472   1.387       .  A
C465        C477   1.415       .  A
C465        C473   1.387       .  A
C466        C480   1.411       .  A
C466        C474   1.385       .  A
C467        C475   1.385       .  A
C467        C478   1.409       .  A
C468        C476   1.388       .  A
C468        C479   1.414       .  A
C469        C470   1.377       .  A
C469        H481   1.082       .  S
C470        H482   1.082       .  S
C471        C472   1.378       .  A
C471        H483   1.082       .  S
C472        H484   1.082       .  S
C473        C474   1.371       .  A
C473        H485   1.081       .  S
C474        H486   1.082       .  S
C475        C476   1.372       .  A
C475        H487   1.082       .  S
C476        H488   1.082       .  S
C477        C651   1.490       .  S
C478        C616   1.475       .  S
C479       C1064   1.485       .  S
C480       C1160   1.488       .  S
N491        C496   1.353       .  A
N491        C495   1.352       .  A
N491        H523   1.040       .  S
N492        C499   1.353       .  A
N492        C500   1.352       .  A
N493        C498   1.351       .  A
N493        C497   1.351       .  A
N493        H524   1.038       .  S
N494        C501   1.349       .  A
N494        C502   1.349       .  A
C495        C503   1.388       .  A
C495        C511   1.416       .  A
C496        C512   1.410       .  A
C496        C504   1.385       .  A
C497        C505   1.387       .  A
C497        C514   1.412       .  A
C498        C513   1.410       .  A
C498        C506   1.386       .  A
C499        C511   1.418       .  A
C499        C507   1.388       .  A
C500        C514   1.413       .  A
C500        C508   1.384       .  A
C501        C509   1.386       .  A
C501        C512   1.408       .  A
C502        C510   1.386       .  A
C502        C513   1.409       .  A
C503        C504   1.376       .  A
C503        H515   1.082       .  S
C504        H516   1.082       .  S
C505        C506   1.375       .  A
C505        H517   1.082       .  S
C506        H518   1.082       .  S
C507        C508   1.376       .  A
C507        H519   1.081       .  S
C508        H520   1.082       .  S
C509        C510   1.375       .  A
C509        H521   1.082       .  S
C510        H522   1.082       .  S
C511       C1080   1.492       .  S
C512        C600   1.477       .  S
C513        C811   1.472       .  S
C514        C984   1.480       .  S
N525        C530   1.355       .  A
N525        C529   1.353       .  A
N525        H557   1.039       .  S
N526        C533   1.350       .  A
N526        C534   1.352       .  A
N527        C532   1.353       .  A
N527        C531   1.355       .  A
N527        H558   1.039       .  S
N528        C535   1.351       .  A
N528        C536   1.349       .  A
C529        C537   1.389       .  A
C529        C545   1.416       .  A
C530        C546   1.414       .  A
C530        C538   1.386       .  A
C531        C539   1.389       .  A
C531        C548   1.419       .  A
C532        C547   1.414       .  A
C532        C540   1.387       .  A
C533        C545   1.412       .  A
C533        C541   1.387       .  A
C534        C548   1.412       .  A
C534        C542   1.386       .  A
C535        C543   1.385       .  A
C535        C546   1.410       .  A
C536        C544   1.387       .  A
C536        C547   1.410       .  A
C537        C538   1.375       .  A
C537        H549   1.082       .  S
C538        H550   1.082       .  S
C539        C540   1.372       .  A
C539        H551   1.081       .  S
C540        H552   1.082       .  S
C541        C542   1.373       .  A
C541        H553   1.082       .  S
C542        H554   1.082       .  S
C543        C544   1.372       .  A
C543        H555   1.082       .  S
C544        H556   1.082       .  S
C545       C1224   1.476       .  S
C546        C712   1.484       .  S
C547        C792   1.473       .  S
C548       C1003   1.484       .  S
N559        C564   1.349       .  A
N559        C563   1.352       .  A
N559        H591   1.042       .  S
N560        C567   1.349       .  A
N560        C568   1.348       .  A
N561        C566   1.353       .  A
N561        C565   1.352       .  A
N561        H592   1.042       .  S
N562        C569   1.349       .  A
N562        C570   1.350       .  A
C563        C571   1.388       .  A
C563        C579   1.412       .  A
C564        C580   1.407       .  A
C564        C572   1.386       .  A
C565        C573   1.387       .  A
C565        C582   1.413       .  A
C566        C581   1.412       .  A
C566        C574   1.386       .  A
C567        C579   1.408       .  A
C567        C575   1.385       .  A
C568        C582   1.409       .  A
C568        C576   1.386       .  A
C569        C577   1.386       .  A
C569        C580   1.407       .  A
C570        C578   1.386       .  A
C570        C581   1.407       .  A
C571        C572   1.374       .  A
C571        H583   1.082       .  S
C572        H584   1.082       .  S
C573        C574   1.376       .  A
C573        H585   1.082       .  S
C574        H586   1.082       .  S
C575        C576   1.373       .  A
C575        H587   1.082       .  S
C576        H588   1.082       .  S
C577        C578   1.374       .  A
C577        H589   1.082       .  S
C578        H590   1.082       .  S
C579        C664   1.483       .  S
C580        C696   1.468       .  S
C581       C1243   1.477       .  S
C582       C1144   1.481       .  S
C593        C598   1.388       .  A
C593        C594   1.398       .  A
C593        S599   1.704       .  A
C594        C595   1.400       .  A
C594        H605   1.083       .  S
C595        C604   1.367       .  A
C595        C596   1.387       .  A
C596        C597   1.404       .  A
C596        S602   1.712       .  A
C597        C598   1.405       .  A
C597        H606   1.083       .  S
C598        C601   1.373       .  A
S599        C600   1.718       .  A
C600        C601   1.386       .  A
C601        H607   1.083       .  S
S602        C603   1.724       .  A
C603        C604   1.385       .  A
C604        H608   1.083       .  S
C609        C614   1.388       .  A
C609        C610   1.397       .  A
C609        S615   1.703       .  A
C610        C611   1.399       .  A
C610        H621   1.083       .  S
C611        C620   1.364       .  A
C611        C612   1.387       .  A
C612        C613   1.403       .  A
C612        S618   1.711       .  A
C613        C614   1.404       .  A
C613        H622   1.083       .  S
C614        C617   1.372       .  A
S615        C616   1.718       .  A
C616        C617   1.385       .  A
C617        H623   1.083       .  S
S618        C619   1.724       .  A
C619        C620   1.385       .  A
C620        H624   1.083       .  S
C625        C630   1.387       .  A
C625        C626   1.402       .  A
C625        S631   1.707       .  A
C626        C627   1.403       .  A
C626        H637   1.083       .  S
C627        C636   1.371       .  A
C627        C628   1.388       .  A
C628        C629   1.398       .  A
C628        S634   1.702       .  A
C629        C630   1.399       .  A
C629        H638   1.083       .  S
C630        C633   1.367       .  A
S631        C632   1.724       .  A
C632        C633   1.385       .  A
C633        H639   1.083       .  S
S634        C635   1.719       .  A
C635        C636   1.384       .  A
C636        H640   1.083       .  S
C641        C646   1.387       .  A
C641        C642   1.402       .  A
C641        S647   1.708       .  A
C642        C643   1.403       .  A
C642        H653   1.083       .  S
C643        C652   1.369       .  A
C643        C644   1.386       .  A
C644        C645   1.400       .  A
C644        S650   1.704       .  A
C645        C646   1.401       .  A
C645        H654   1.083       .  S
C646        C649   1.368       .  A
S647        C648   1.723       .  A
C648        C649   1.385       .  A
C649        H655   1.083       .  S
S650        C651   1.726       .  A
C651        C652   1.389       .  A
C652        H656   1.083       .  S
C657        C662   1.387       .  A
C657        C658   1.396       .  A
C657        S663   1.701       .  A
C658        C659   1.398       .  A
C658        H669   1.083       .  S
C659        C668   1.363       .  A
C659        C660   1.387       .  A
C660        C661   1.400       .  A
C660        S666   1.707       .  A
C661        C662   1.402       .  A
C661        H670   1.083       .  S
C662        C665   1.367       .  A
S663        C664   1.724       .  A
C664        C665   1.387       .  A
C665        H671   1.083       .  S
S666        C667   1.722       .  A
C667        C668   1.383       .  A
C668        H672   1.083       .  S
C673        C678   1.387       .  A
C673        C674   1.405       .  A
C673        S679   1.712       .  A
C674        C675   1.406       .  A
C674        H685   1.083       .  S
C675        C684   1.374       .  A
C675        C676   1.386       .  A
C676        C677   1.398       .  A
C676        S682   1.701       .  A
C677        C678   1.398       .  A
C677        H686   1.083       .  S
C678        C681   1.367       .  A
S679        C680   1.726       .  A
C680        C681   1.383       .  A
C681        H687   1.083       .  S
S682        C683   1.724       .  A
C683        C684   1.391       .  A
C684        H688   1.083       .  S
C689        C694   1.388       .  A
C689        C690   1.399       .  A
C689        S695   1.705       .  A
C690        C691   1.400       .  A
C690        H701   1.083       .  S
C691        C700   1.368       .  A
C691        C692   1.388       .  A
C692        C693   1.397       .  A
C692        S698   1.701       .  A
C693        C694   1.398       .  A
C693        H702   1.083       .  S
C694        C697   1.364       .  A
S695        C696   1.718       .  A
C696        C697   1.381       .  A
C697        H703   1.083       .  S
S698        C699   1.722       .  A
C699        C700   1.384       .  A
C700        H704   1.083       .  S
C705        C710   1.387       .  A
C705        C706   1.407       .  A
C705        S711   1.713       .  A
C706        C707   1.407       .  A
C706        H717   1.083       .  S
C707        C716   1.379       .  A
C707        C708   1.387       .  A
C708        C709   1.400       .  A
C708        S714   1.701       .  A
C709        C710   1.400       .  A
C709        H718   1.083       .  S
C710        C713   1.370       .  A
S711        C712   1.723       .  A
C712        C713   1.384       .  A
C713        H719   1.083       .  S
S714        C715   1.725       .  A
C715        C716   1.389       .  A
C716        H720   1.083       .  S
C721        C726   1.387       .  A
C721        C722   1.401       .  A
C721        S727   1.710       .  A
C722        C723   1.402       .  A
C722        H733   1.083       .  S
C723        C732   1.367       .  A
C723        C724   1.388       .  A
C724        C725   1.397       .  A
C724        S730   1.705       .  A
C725        C726   1.400       .  A
C725        H734   1.083       .  S
C726        C729   1.363       .  A
S727        C728   1.722       .  A
C728        C729   1.386       .  A
C729        H735   1.083       .  S
S730        C731   1.718       .  A
C731        C732   1.382       .  A
C732        H736   1.083       .  S
C737        C742   1.387       .  A
C737        C738   1.400       .  A
C737        S743   1.705       .  A
C738        C739   1.401       .  A
C738        H749   1.083       .  S
C739        C748   1.369       .  A
C739        C740   1.387       .  A
C740        C741   1.404       .  A
C740        S746   1.710       .  A
C741        C742   1.405       .  A
C741        H750   1.083       .  S
C742        C745   1.374       .  A
S743        C744   1.721       .  A
C744        C745   1.387       .  A
C745        H751   1.083       .  S
S746        C747   1.726       .  A
C747        C748   1.385       .  A
C748        H752   1.083       .  S
C753        C758   1.387       .  A
C753        C754   1.405       .  A
C753        S759   1.712       .  A
C754        C755   1.406       .  A
C754        H765   1.083       .  S
C755        C764   1.372       .  A
C755        C756   1.388       .  A
C756        C757   1.395       .  A
C756        S762   1.700       .  A
C757        C758   1.396       .  A
C757        H766   1.083       .  S
C758        C761   1.363       .  A
S759        C760   1.726       .  A
C760        C761   1.383       .  A
C761        H767   1.083       .  S
S762        C763   1.716       .  A
C763        C764   1.387       .  A
C764        H768   1.083       .  S
C769        C774   1.387       .  A
C769        C770   1.405       .  A
C769        S775   1.712       .  A
C770        C771   1.406       .  A
C770        H781   1.083       .  S
C771        C780   1.374       .  A
C771        C772   1.386       .  A
C772        C773   1.400       .  A
C772        S778   1.705       .  A
C773        C774   1.401       .  A
C773        H782   1.083       .  S
C774        C777   1.370       .  A
S775        C776   1.725       .  A
C776        C777   1.386       .  A
C777        H783   1.083       .  S
S778        C779   1.725       .  A
C779        C780   1.390       .  A
C780        H784   1.083       .  S
C785        C790   1.388       .  A
C785        C786   1.396       .  A
C785        S791   1.702       .  A
C786        C787   1.398       .  A
C786        H797   1.083       .  S
C787        C796   1.364       .  A
C787        C788   1.387       .  A
C788        C789   1.402       .  A
C788        S794   1.709       .  A
C789        C790   1.403       .  A
C789        H798   1.083       .  S
C790        C793   1.369       .  A
S791        C792   1.718       .  A
C792        C793   1.383       .  A
C793        H799   1.083       .  S
S794        C795   1.723       .  A
C795        C796   1.384       .  A
C796        H800   1.083       .  S
C801        C806   1.387       .  A
C801        C802   1.404       .  A
C801        S807   1.710       .  A
C802        C803   1.404       .  A
C802        H813   1.083       .  S
C803        C812   1.371       .  A
C803        C804   1.388       .  A
C804        C805   1.397       .  A
C804        S810   1.701       .  A
C805        C806   1.398       .  A
C805        H814   1.083       .  S
C806        C809   1.365       .  A
S807        C808   1.725       .  A
C808        C809   1.384       .  A
C809        H815   1.083       .  S
S810        C811   1.716       .  A
C811        C812   1.384       .  A
C812        H816   1.083       .  S
C817        C822   1.387       .  A
C817        C818   1.401       .  A
C817        S823   1.704       .  A
C818        C819   1.401       .  A
C818        H829   1.083       .  S
C819        C828   1.369       .  A
C819        C820   1.388       .  A
C820        C821   1.401       .  A
C820        S826   1.708       .  A
C821        C822   1.402       .  A
C821        H830   1.083       .  S
C822        C825   1.371       .  A
S823        C824   1.724       .  A
C824        C825   1.386       .  A
C825        H831   1.083       .  S
S826        C827   1.719       .  A
C827        C828   1.384       .  A
C828        H832   1.083       .  S
C833        C838   1.387       .  A
C833        C834   1.399       .  A
C833        S839   1.706       .  A
C834        C835   1.401       .  A
C834        H845   1.083       .  S
C835        C844   1.367       .  A
C835        C836   1.387       .  A
C836        C837   1.401       .  A
C836        S842   1.707       .  A
C837        C838   1.402       .  A
C837        H846   1.083       .  S
C838        C841   1.368       .  A
S839        C840   1.721       .  A
C840        C841   1.386       .  A
C841        H847   1.083       .  S
S842        C843   1.724       .  A
C843        C844   1.386       .  A
C844        H848   1.083       .  S
C849        C854   1.386       .  A
C849        C850   1.403       .  A
C849        S855   1.704       .  A
C850        C851   1.402       .  A
C850        H861   1.083       .  S
C851        C860   1.373       .  A
C851        C852   1.387       .  A
C852        C853   1.404       .  A
C852        S858   1.708       .  A
C853        C854   1.405       .  A
C853        H862   1.083       .  S
C854        C857   1.375       .  A
S855        C856   1.729       .  A
C856        C857   1.391       .  A
C857        H863   1.083       .  S
S858        C859   1.725       .  A
C859        C860   1.387       .  A
C860        H864   1.083       .  S
C865        C870   1.386       .  A
C865        C866   1.403       .  A
C865        S871   1.709       .  A
C866        C867   1.404       .  A
C866        H877   1.083       .  S
C867        C876   1.371       .  A
C867        C868   1.387       .  A
C868        C869   1.399       .  A
C868        S874   1.706       .  A
C869        C870   1.401       .  A
C869        H878   1.083       .  S
C870        C873   1.367       .  A
S871        C872   1.727       .  A
C872        C873   1.387       .  A
C873        H879   1.083       .  S
S874        C875   1.721       .  A
C875        C876   1.387       .  A
C876        H880   1.083       .  S
C881        C886   1.387       .  A
C881        C882   1.397       .  A
C881        S887   1.697       .  A
C882        C883   1.397       .  A
C882        H893   1.083       .  S
C883        C892   1.366       .  A
C883        C884   1.388       .  A
C884        C885   1.401       .  A
C884        S890   1.705       .  A
C885        C886   1.402       .  A
C885        H894   1.083       .  S
C886        C889   1.370       .  A
S887        C888   1.725       .  A
C888        C889   1.387       .  A
C889        H895   1.083       .  S
S890        C891   1.723       .  A
C891        C892   1.381       .  A
C892        H896   1.083       .  S
C897        C902   1.388       .  A
C897        C898   1.398       .  A
C897        S903   1.699       .  A
C898        C899   1.397       .  A
C898        H909   1.083       .  S
C899        C908   1.367       .  A
C899        C900   1.388       .  A
C900        C901   1.401       .  A
C900        S906   1.704       .  A
C901        C902   1.402       .  A
C901        H910   1.083       .  S
C902        C905   1.371       .  A
S903        C904   1.721       .  A
C904        C905   1.387       .  A
C905        H911   1.083       .  S
S906        C907   1.721       .  A
C907        C908   1.380       .  A
C908        H912   1.083       .  S
C913        C918   1.387       .  A
C913        C914   1.404       .  A
C913        S919   1.712       .  A
C914        C915   1.405       .  A
C914        H925   1.083       .  S
C915        C924   1.374       .  A
C915        C916   1.388       .  A
C916        C917   1.396       .  A
C916        S922   1.699       .  A
C917        C918   1.397       .  A
C917        H926   1.083       .  S
C918        C921   1.364       .  A
S919        C920   1.725       .  A
C920        C921   1.382       .  A
C921        H927   1.083       .  S
S922        C923   1.720       .  A
C923        C924   1.387       .  A
C924        H928   1.083       .  S
C929        C934   1.387       .  A
C929        C930   1.402       .  A
C929        S935   1.709       .  A
C930        C931   1.403       .  A
C930        H941   1.083       .  S
C931        C940   1.369       .  A
C931        C932   1.386       .  A
C932        C933   1.400       .  A
C932        S938   1.705       .  A
C933        C934   1.401       .  A
C933        H942   1.083       .  S
C934        C937   1.368       .  A
S935        C936   1.723       .  A
C936        C937   1.386       .  A
C937        H943   1.083       .  S
S938        C939   1.727       .  A
C939        C940   1.389       .  A
C940        H944   1.083       .  S
C945        C950   1.386       .  A
C945        C946   1.400       .  A
C945        S951   1.705       .  A
C946        C947   1.402       .  A
C946        H957   1.083       .  S
C947        C956   1.370       .  A
C947        C948   1.387       .  A
C948        C949   1.403       .  A
C948        S954   1.710       .  A
C949        C950   1.404       .  A
C949        H958   1.083       .  S
C950        C953   1.371       .  A
S951        C952   1.726       .  A
C952        C953   1.390       .  A
C953        H959   1.083       .  S
S954        C955   1.725       .  A
C955        C956   1.386       .  A
C956        H960   1.083       .  S
C961        C966   1.387       .  A
C961        C962   1.399       .  A
C961        S967   1.704       .  A
C962        C963   1.400       .  A
C962        H973   1.083       .  S
C963        C972   1.365       .  A
C963        C964   1.387       .  A
C964        C965   1.401       .  A
C964        S970   1.708       .  A
C965        C966   1.402       .  A
C965        H974   1.083       .  S
C966        C969   1.369       .  A
S967        C968   1.722       .  A
C968        C969   1.386       .  A
C969        H975   1.083       .  S
S970        C971   1.724       .  A
C971        C972   1.386       .  A
C972        H976   1.083       .  S
C977        C982   1.387       .  A
C977        C978   1.405       .  A
C977        S983   1.712       .  A
C978        C979   1.406       .  A
C978        H989   1.083       .  S
C979        C988   1.376       .  A
C979        C980   1.387       .  A
C980        C981   1.399       .  A
C980        S986   1.702       .  A
C981        C982   1.400       .  A
C981        H990   1.083       .  S
C982        C985   1.368       .  A
S983        C984   1.722       .  A
C984        C985   1.384       .  A
C985        H991   1.083       .  S
S986        C987   1.723       .  A
C987        C988   1.388       .  A
C988        H992   1.083       .  S
C993        C998   1.387       .  A
C993        C994   1.397       .  A
C993        S999   1.698       .  A
C994        C995   1.397       .  A
C994       H1005   1.083       .  S
C995       C1004   1.366       .  A
C995        C996   1.387       .  A
C996        C997   1.407       .  A
C996       S1002   1.713       .  A
C997        C998   1.407       .  A
C997       H1006   1.083       .  S
C998       C1001   1.377       .  A
S999       C1000   1.722       .  A
C1000      C1001   1.390       .  A
C1001      H1007   1.083       .  S
S1002      C1003   1.725       .  A
C1003      C1004   1.383       .  A
C1004      H1008   1.083       .  S
C1009      C1014   1.386       .  A
C1009      C1010   1.405       .  A
C1009      S1015   1.713       .  A
C1010      C1011   1.405       .  A
C1010      H1021   1.083       .  S
C1011      C1020   1.374       .  A
C1011      C1012   1.388       .  A
C1012      C1013   1.401       .  A
C1012      S1018   1.708       .  A
C1013      C1014   1.402       .  A
C1013      H1022   1.083       .  S
C1014      C1017   1.370       .  A
S1015      C1016   1.725       .  A
C1016      C1017   1.388       .  A
C1017      H1023   1.083       .  S
S1018      C1019   1.720       .  A
C1019      C1020   1.386       .  A
C1020      H1024   1.083       .  S
C1025      C1030   1.387       .  A
C1025      C1026   1.403       .  A
C1025      S1031   1.708       .  A
C1026      C1027   1.403       .  A
C1026      H1037   1.083   1_554  S
C1027      C1036   1.372   1_554  A
C1027      C1028   1.387       .  A
C1028      C1029   1.400       .  A
C1028      S1034   1.704       .  A
C1029      C1030   1.401       .  A
C1029      H1038   1.083       .  S
C1030      C1033   1.370       .  A
S1031      C1032   1.723       .  A
C1032      C1033   1.385       .  A
C1033      H1039   1.083       .  S
S1034      C1035   1.725   1_554  A
C1035      C1036   1.388       .  A
C1036      H1040   1.083       .  S
C1041      C1046   1.386   1_554  A
C1041      C1042   1.405       .  A
C1041      S1047   1.709       .  A
C1042      C1043   1.406       .  A
C1042      H1053   1.083       .  S
C1043      C1052   1.376       .  A
C1043      C1044   1.387       .  A
C1044      C1045   1.400       .  A
C1044      S1050   1.704       .  A
C1045      C1046   1.400   1_554  A
C1045      H1054   1.083   1_554  S
C1046      C1049   1.369       .  A
S1047      C1048   1.730   1_554  A
C1048      C1049   1.386       .  A
C1049      H1055   1.083       .  S
S1050      C1051   1.721       .  A
C1051      C1052   1.389       .  A
C1052      H1056   1.083       .  S
C1057      C1062   1.387       .  A
C1057      C1058   1.400       .  A
C1057      S1063   1.705       .  A
C1058      C1059   1.401       .  A
C1058      H1069   1.083       .  S
C1059      C1068   1.367       .  A
C1059      C1060   1.387       .  A
C1060      C1061   1.401       .  A
C1060      S1066   1.708       .  A
C1061      C1062   1.402       .  A
C1061      H1070   1.083       .  S
C1062      C1065   1.369       .  A
S1063      C1064   1.724       .  A
C1064      C1065   1.387       .  A
C1065      H1071   1.083       .  S
S1066      C1067   1.721       .  A
C1067      C1068   1.384       .  A
C1068      H1072   1.083       .  S
C1073      C1078   1.386       .  A
C1073      C1074   1.400       .  A
C1073      S1079   1.702       .  A
C1074      C1075   1.400       .  A
C1074      H1085   1.083       .  S
C1075      C1084   1.370       .  A
C1075      C1076   1.387       .  A
C1076      C1077   1.404       .  A
C1076      S1082   1.710       .  A
C1077      C1078   1.404       .  A
C1077      H1086   1.083       .  S
C1078      C1081   1.373       .  A
S1079      C1080   1.727       .  A
C1080      C1081   1.390       .  A
C1081      H1087   1.083       .  S
S1082      C1083   1.725       .  A
C1083      C1084   1.385       .  A
C1084      H1088   1.083       .  S
C1089      C1094   1.387       .  A
C1089      C1090   1.400       .  A
C1089      S1095   1.706       .  A
C1090      C1091   1.401       .  A
C1090      H1101   1.083       .  S
C1091      C1100   1.368       .  A
C1091      C1092   1.387       .  A
C1092      C1093   1.404       .  A
C1092      S1098   1.712       .  A
C1093      C1094   1.406       .  A
C1093      H1102   1.083       .  S
C1094      C1097   1.373       .  A
S1095      C1096   1.725       .  A
C1096      C1097   1.390       .  A
C1097      H1103   1.083       .  S
S1098      C1099   1.724       .  A
C1099      C1100   1.386       .  A
C1100      H1104   1.083       .  S
C1105      C1110   1.386       .  A
C1105      C1106   1.406       .  A
C1105      S1111   1.712       .  A
C1106      C1107   1.406       .  A
C1106      H1117   1.083       .  S
C1107      C1116   1.375   1_554  A
C1107      C1108   1.388   1_554  A
C1108      C1109   1.401   1_556  A
C1108      S1114   1.707       .  A
C1109      C1110   1.402       .  A
C1109      H1118   1.083       .  S
C1110      C1113   1.371       .  A
S1111      C1112   1.726       .  A
C1112      C1113   1.388       .  A
C1113      H1119   1.083       .  S
S1114      C1115   1.720       .  A
C1115      C1116   1.387       .  A
C1116      H1120   1.083       .  S
C1121      C1126   1.387       .  A
C1121      C1122   1.398       .  A
C1121      S1127   1.704       .  A
C1122      C1123   1.399       .  A
C1122      H1133   1.083       .  S
C1123      C1132   1.364   1_554  A
C1123      C1124   1.388       .  A
C1124      C1125   1.400       .  A
C1124      S1130   1.709   1_554  A
C1125      C1126   1.402       .  A
C1125      H1134   1.083       .  S
C1126      C1129   1.368       .  A
S1127      C1128   1.722       .  A
C1128      C1129   1.385       .  A
C1129      H1135   1.083       .  S
S1130      C1131   1.719       .  A
C1131      C1132   1.381       .  A
C1132      H1136   1.083       .  S
C1137      C1142   1.387       .  A
C1137      C1138   1.401       .  A
C1137      S1143   1.707       .  A
C1138      C1139   1.402       .  A
C1138      H1149   1.083       .  S
C1139      C1148   1.369       .  A
C1139      C1140   1.388       .  A
C1140      C1141   1.397       .  A
C1140      S1146   1.703       .  A
C1141      C1142   1.399       .  A
C1141      H1150   1.083       .  S
C1142      C1145   1.364       .  A
S1143      C1144   1.724       .  A
C1144      C1145   1.385       .  A
C1145      H1151   1.083       .  S
S1146      C1147   1.720       .  A
C1147      C1148   1.384       .  A
C1148      H1152   1.083       .  S
C1153      C1158   1.387       .  A
C1153      C1154   1.402       .  A
C1153      S1159   1.706       .  A
C1154      C1155   1.403       .  A
C1154      H1165   1.083       .  S
C1155      C1164   1.372       .  A
C1155      C1156   1.387       .  A
C1156      C1157   1.400       .  A
C1156      S1162   1.704       .  A
C1157      C1158   1.401       .  A
C1157      H1166   1.083       .  S
C1158      C1161   1.369       .  A
S1159      C1160   1.727       .  A
C1160      C1161   1.387       .  A
C1161      H1167   1.083       .  S
S1162      C1163   1.722       .  A
C1163      C1164   1.386       .  A
C1164      H1168   1.083       .  S
C1169      C1174   1.386       .  A
C1169      C1170   1.404       .  A
C1169      S1175   1.709       .  A
C1170      C1171   1.405       .  A
C1170      H1181   1.083       .  S
C1171      C1180   1.374       .  A
C1171      C1172   1.388       .  A
C1172      C1173   1.399       .  A
C1172      S1178   1.702       .  A
C1173      C1174   1.400       .  A
C1173      H1182   1.083       .  S
C1174      C1177   1.368       .  A
S1175      C1176   1.728       .  A
C1176      C1177   1.387       .  A
C1177      H1183   1.083       .  S
S1178      C1179   1.720       .  A
C1179      C1180   1.387       .  A
C1180      H1184   1.083       .  S
C1185      C1190   1.387       .  A
C1185      C1186   1.402       .  A
C1185      S1191   1.708       .  A
C1186      C1187   1.403       .  A
C1186      H1197   1.083       .  S
C1187      C1196   1.369   1_554  A
C1187      C1188   1.389       .  A
C1188      C1189   1.396       .  A
C1188      S1194   1.700   1_554  A
C1189      C1190   1.397       .  A
C1189      H1198   1.083       .  S
C1190      C1193   1.363       .  A
S1191      C1192   1.724       .  A
C1192      C1193   1.383       .  A
C1193      H1199   1.083       .  S
S1194      C1195   1.716       .  A
C1195      C1196   1.383       .  A
C1196      H1200   1.083       .  S
C1201      C1206   1.388       .  A
C1201      C1202   1.402       .  A
C1201      S1207   1.711   1_554  A
C1202      C1203   1.404       .  A
C1202      H1213   1.083       .  S
C1203      C1212   1.371       .  A
C1203      C1204   1.387       .  A
C1204      C1205   1.398       .  A
C1204      S1210   1.703       .  A
C1205      C1206   1.399       .  A
C1205      H1214   1.083       .  S
C1206      C1209   1.366   1_554  A
S1207      C1208   1.720       .  A
C1208      C1209   1.382       .  A
C1209      H1215   1.083       .  S
S1210      C1211   1.723       .  A
C1211      C1212   1.387       .  A
C1212      H1216   1.083       .  S
C1217      C1222   1.388       .  A
C1217      C1218   1.403       .  A
C1217      S1223   1.710       .  A
C1218      C1219   1.404       .  A
C1218      H1229   1.083       .  S
C1219      C1228   1.372       .  A
C1219      C1220   1.387       .  A
C1220      C1221   1.398       .  A
C1220      S1226   1.701       .  A
C1221      C1222   1.399       .  A
C1221      H1230   1.083       .  S
C1222      C1225   1.365       .  A
S1223      C1224   1.721       .  A
C1224      C1225   1.382       .  A
C1225      H1231   1.083       .  S
S1226      C1227   1.722       .  A
C1227      C1228   1.387       .  A
C1228      H1232   1.083       .  S
C1233      C1238   1.386       .  A
C1233      C1234   1.405       .  A
C1233      S1239   1.713       .  A
C1234      C1235   1.406       .  A
C1234      H1245   1.083       .  S
C1235      C1244   1.374       .  A
C1235      C1236   1.388       .  A
C1236      C1237   1.398       .  A
C1236      S1242   1.704       .  A
C1237      C1238   1.399       .  A
C1237      H1246   1.083       .  S
C1238      C1241   1.367       .  A
S1239      C1240   1.726       .  A
C1240      C1241   1.386       .  A
C1241      H1247   1.083       .  S
S1242      C1243   1.718       .  A
C1243      C1244   1.386       .  A
C1244      H1248   1.083       .  S
C1249      C1254   1.386       .  A
C1249      C1250   1.407       .  A
C1249      S1255   1.715       .  A
C1250      C1251   1.407       .  A
C1250      H1261   1.083       .  S
C1251      C1260   1.376       .  A
C1251      C1252   1.387       .  A
C1252      C1253   1.401       .  A
C1252      S1258   1.707       .  A
C1253      C1254   1.402       .  A
C1253      H1262   1.083       .  S
C1254      C1257   1.371       .  A
S1255      C1256   1.725       .  A
C1256      C1257   1.388       .  A
C1257      H1263   1.083       .  S
S1258      C1259   1.723       .  A
C1259      C1260   1.389       .  A
C1260      H1264   1.083       .  S
C1265      C1270   1.388   1_554  A
C1265      C1266   1.399       .  A
C1265      S1271   1.705   1_554  A
C1266      C1267   1.400       .  A
C1266      H1277   1.083       .  S
C1267      C1276   1.367       .  A
C1267      C1268   1.387       .  A
C1268      C1269   1.402       .  A
C1268      S1274   1.710       .  A
C1269      C1270   1.403   1_554  A
C1269      H1278   1.083   1_554  S
C1270      C1273   1.369       .  A
S1271      C1272   1.721       .  A
C1272      C1273   1.385       .  A
C1273      H1279   1.083       .  S
S1274      C1275   1.723       .  A
C1275      C1276   1.384       .  A
C1276      H1280   1.083       .  S
C1281      C1286   1.388       .  A
C1281      C1282   1.399       .  A
C1281      S1287   1.701       .  A
C1282      C1283   1.400       .  A
C1282      H1293   1.083       .  S
C1283      C1292   1.368   1_554  A
C1283      C1284   1.387   1_554  A
C1284      C1285   1.402   1_556  A
C1284      S1290   1.707       .  A
C1285      C1286   1.403       .  A
C1285      H1294   1.083   1_554  S
C1286      C1289   1.373       .  A
S1287      C1288   1.722       .  A
C1288      C1289   1.385       .  A
C1289      H1295   1.083       .  S
S1290      C1291   1.724       .  A
C1291      C1292   1.385       .  A
C1292      H1296   1.083       .  S
C1297      C1302   1.387       .  A
C1297      C1298   1.403       .  A
C1297      S1303   1.711       .  A
C1298      C1299   1.404       .  A
C1298      H1309   1.083       .  S
C1299      C1308   1.372       .  A
C1299      C1300   1.386       .  A
C1300      C1301   1.403       .  A
C1300      S1306   1.708       .  A
C1301      C1302   1.404       .  A
C1301      H1310   1.083       .  S
C1302      C1305   1.372       .  A
S1303      C1304   1.723       .  A
C1304      C1305   1.389       .  A
C1305      H1311   1.083       .  S
S1306      C1307   1.727       .  A
C1307      C1308   1.390       .  A
C1308      H1312   1.083       .  S
C1313      C1318   1.387       .  A
C1313      C1314   1.398       .  A
C1313      S1319   1.701       .  A
C1314      C1315   1.398       .  A
C1314      H1325   1.083       .  S
C1315      C1324   1.366       .  A
C1315      C1316   1.387       .  A
C1316      C1317   1.406       .  A
C1316      S1322   1.713       .  A
C1317      C1318   1.407       .  A
C1317      H1326   1.083       .  S
C1318      C1321   1.375       .  A
S1319      C1320   1.722       .  A
C1320      C1321   1.390       .  A
C1321      H1327   1.083       .  S
S1322      C1323   1.725       .  A
C1323      C1324   1.384       .  A
C1324      H1328   1.083       .  S
C1329      C1334   1.387       .  A
C1329      C1330   1.404       .  A
C1329      S1335   1.711       .  A
C1330      C1331   1.405       .  A
C1330      H1341   1.083       .  S
C1331      C1340   1.373       .  A
C1331      C1332   1.387       .  A
C1332      C1333   1.399       .  A
C1332      S1338   1.703       .  A
C1333      C1334   1.399       .  A
C1333      H1342   1.083       .  S
C1334      C1337   1.366       .  A
S1335      C1336   1.722       .  A
C1336      C1337   1.383       .  A
C1337      H1343   1.083       .  S
S1338      C1339   1.723       .  A
C1339      C1340   1.388       .  A
C1340      H1344   1.083       .  S
C1345      C1350   1.387       .  A
C1345      C1346   1.399       .  A
C1345      S1351   1.703       .  A
C1346      C1347   1.400       .  A
C1346      H1357   1.083       .  S
C1347      C1356   1.369       .  A
C1347      C1348   1.386       .  A
C1348      C1349   1.405       .  A
C1348      S1354   1.710       .  A
C1349      C1350   1.406       .  A
C1349      H1358   1.083       .  S
C1350      C1353   1.375       .  A
S1351      C1352   1.721       .  A
C1352      C1353   1.388       .  A
C1353      H1359   1.083       .  S
S1354      C1355   1.730       .  A
C1355      C1356   1.387       .  A
C1356      H1360   1.083       .  S
