geometry optimzed in LAMMPS
_audit_creation_date              2020-12-01 
_audit_creation_method            'lammps2cif' 
_symmetry_space_group_name_H-M    'P1' 
_symmetry_Int_Tables_number       1 
_symmetry_cell_setting            triclinic 
loop_ 
_symmetry_equiv_pos_as_xyz 
  x,y,z 
_cell_length_a                    47.72532667 
_cell_length_b                    47.67763218640916 
_cell_length_c                    50.033162165898055 
_cell_angle_alpha                 90.07471409789102 
_cell_angle_beta                  90.00341115655803 
_cell_angle_gamma                 89.97301883598898 
loop_ 
_atom_site_label 
_atom_site_type_symbol 
_atom_site_fract_x 
_atom_site_fract_y 
_atom_site_fract_z 
_atom_site_charge 
O1          O  0.47124070  0.85198861  0.02637107    -0.73100
O2          O  0.52990385  0.85046691  0.46913385    -0.74100
O3          O  0.47090991  0.85123227  0.46935045    -0.62700
O4          O  0.53004834  0.85092488  0.02645135    -0.71100
O5          O  0.52970247  0.80433909  0.02663507    -0.70700
O6          O  0.46995860  0.80465031  0.47002442    -0.61900
O7          O  0.52972230  0.80388330  0.46980334    -0.74400
O8          O  0.47009578  0.80539182  0.02643065    -0.73200
Cu9        Cu  0.50058923  0.85277206  0.99779651     1.04600
Cu10       Cu  0.49988829  0.80291631  0.49822103     1.04300
C11         C  0.46149970  0.82896293  0.03542216     0.93100
C12         C  0.53886427  0.82699160  0.46027450     0.92200
C13         C  0.46103331  0.82798008  0.46083384     0.84400
C14         C  0.53892730  0.82760938  0.03575325     0.90700
N15         N  0.64816076  0.86699031  0.33039517    -0.27400
N16         N  0.62427971  0.87727264  0.33959654    -0.35300
C17         C  0.61727878  0.89999788  0.32516561     0.00900
C18         C  0.63794489  0.90443274  0.30629335     0.06900
C19         C  0.65730647  0.88328139  0.31025060    -0.06200
H20         H  0.59851957  0.91235760  0.32818264     0.07600
H21         H  0.67602947  0.87932352  0.29864864     0.08800
Cu22       Cu  0.60226548  0.86007463  0.37138287     0.44200
Cu23       Cu  0.66563526  0.82962533  0.34364193     0.42000
Cu24       Cu  0.62635333  0.79180823  0.39359869     0.43900
N25         N  0.58520801  0.83873400  0.40366100    -0.34800
N26         N  0.59334206  0.81339149  0.41109884    -0.29100
C27         C  0.57797652  0.80522607  0.43224115    -0.05200
C28         C  0.55962847  0.82662321  0.43864350     0.07000
C29         C  0.56476557  0.84756210  0.42017816     0.00800
H30         H  0.58043317  0.78543667  0.44253646     0.08500
H31         H  0.55424368  0.86760881  0.41868075     0.07600
N32         N  0.66242688  0.77624177  0.37578419    -0.36300
N33         N  0.67710756  0.79038230  0.35790879    -0.28400
C34         C  0.70006810  0.77548555  0.35145076    -0.03700
C35         C  0.69970033  0.75062721  0.36570460     0.04900
C36         C  0.67561711  0.75191695  0.38110321     0.03000
H37         H  0.71608957  0.78240903  0.33766100     0.08100
H38         H  0.66881173  0.73699273  0.39600421     0.07000
N39         N  0.35173018  0.86815031  0.33094724    -0.27400
N40         N  0.37511300  0.87844735  0.34118594    -0.35300
C41         C  0.38310739  0.90085514  0.32678687     0.00900
C42         C  0.36354741  0.90507342  0.30684276     0.06900
C43         C  0.34387671  0.88409766  0.31009060    -0.06200
H44         H  0.40156226  0.91335022  0.33078680     0.07600
H45         H  0.32557983  0.88030457  0.29784103     0.08800
Cu46       Cu  0.39481840  0.86188039  0.37447872     0.44200
Cu47       Cu  0.33259256  0.83195554  0.34484154     0.42000
Cu48       Cu  0.36647248  0.79743497  0.40108112     0.43900
N49         N  0.41179416  0.84092297  0.40687230    -0.34800
N50         N  0.40211370  0.81679077  0.41601844    -0.29100
C51         C  0.41845496  0.80818671  0.43633687    -0.05200
C52         C  0.43907055  0.82811570  0.44035117     0.07000
C53         C  0.43420035  0.84860627  0.42142447     0.00800
H54         H  0.41516728  0.78919230  0.44772292     0.08500
H55         H  0.44622728  0.86754030  0.41823845     0.07600
N56         N  0.33061193  0.78255129  0.38242197    -0.36300
N57         N  0.31852381  0.79483271  0.36173580    -0.28400
C58         C  0.29600506  0.77972999  0.35436590    -0.03700
C59         C  0.29375143  0.75684033  0.37126819     0.04900
C60         C  0.31597199  0.75945962  0.38888989     0.03000
H61         H  0.28193425  0.78547174  0.33833035     0.08100
H62         H  0.32119662  0.74554045  0.40520817     0.07000
N63         N  0.59547011  0.81607062  0.08334076    -0.27400
N64         N  0.58687463  0.84129496  0.09075328    -0.35300
C65         C  0.56531944  0.84911242  0.07511868     0.00900
C66         C  0.55987390  0.82765330  0.05725978     0.06900
C67         C  0.57917661  0.80692212  0.06316126    -0.06200
H68         H  0.55453312  0.86902554  0.07655034     0.07600
H69         H  0.58202593  0.78722397  0.05274790     0.08800
Cu70       Cu  0.60496478  0.86421571  0.12155085     0.44200
Cu71       Cu  0.63145513  0.79709567  0.09830339     0.42000
Cu72       Cu  0.67279482  0.84011692  0.14338575     0.43900
N73         N  0.62673632  0.88203798  0.15323301    -0.34800
N74         N  0.65216091  0.87398234  0.16039968    -0.29100
C75         C  0.66054732  0.88939281  0.18146956    -0.05200
C76         C  0.63917121  0.90766083  0.18816368     0.07000
C77         C  0.61804575  0.90246433  0.16987940     0.00800
H78         H  0.68033548  0.88679044  0.19172506     0.08500
H79         H  0.59785900  0.91273601  0.16875567     0.07600
N80         N  0.68638092  0.80208264  0.12796044    -0.36300
N81         N  0.67111418  0.78604959  0.11205728    -0.28400
C82         C  0.68551285  0.76244745  0.10665832    -0.03700
C83         C  0.71118675  0.76372768  0.11959049     0.04900
C84         C  0.71080278  0.78909219  0.13315356     0.03000
H85         H  0.67783165  0.74551455  0.09424874     0.08100
H86         H  0.72638436  0.79712060  0.14681268     0.07000
N87         N  0.35334517  0.87050481  0.16591761    -0.27400
N88         N  0.37727762  0.88052649  0.15662895    -0.35300
C89         C  0.38500447  0.90268850  0.17161546     0.00900
C90         C  0.36471812  0.90704251  0.19092626     0.06900
C91         C  0.34492637  0.88635215  0.18668982    -0.06200
H92         H  0.40382292  0.91489699  0.16849047     0.07600
H93         H  0.32616515  0.88261539  0.19828839     0.08800
Cu94       Cu  0.39797855  0.86388225  0.12366911     0.44200
Cu95       Cu  0.33408726  0.83464712  0.15119287     0.42000
Cu96       Cu  0.36945936  0.79895127  0.09738435     0.43900
N97         N  0.41430629  0.84267174  0.09086109    -0.34800
N98         N  0.40443699  0.81843496  0.08208941    -0.29100
C99         C  0.41993102  0.80969456  0.06127567    -0.05200
C100        C  0.44023101  0.82960974  0.05644842     0.07000
C101        C  0.43610310  0.85028516  0.07545191     0.00800
H102        H  0.41622839  0.79059702  0.05011474     0.08500
H103        H  0.44822276  0.86926029  0.07809133     0.07600
N104        N  0.33334679  0.78418672  0.11492940    -0.36300
N105        N  0.32034775  0.79713674  0.13470695    -0.28400
C106        C  0.29758136  0.78220043  0.14152807    -0.03700
C107        C  0.29619546  0.75866019  0.12526431     0.04900
C108        C  0.31918824  0.76079862  0.10850061     0.03000
H109        H  0.28311469  0.78808708  0.15720498     0.08100
H110        H  0.32494267  0.74689664  0.09231333     0.07000
O111        O  0.66121504  0.99520579  0.27789865    -0.73100
O112        O  0.66202269  0.93681768  0.21992670    -0.74100
O113        O  0.66159653  0.99641576  0.22152083    -0.62700
O114        O  0.66164945  0.93532320  0.27666742    -0.71100
O115        O  0.61510177  0.93569812  0.27668070    -0.70700
O116        O  0.61504070  0.99580546  0.22083917    -0.61900
O117        O  0.61548612  0.93686382  0.21937955    -0.74400
O118        O  0.61466623  0.99471212  0.27784569    -0.73200
Cu119      Cu  0.66326712  0.96592183  0.24903237     1.04600
Cu120      Cu  0.61345346  0.96572354  0.24869109     1.04300
C121        C  0.63782252  0.00410499  0.28698507     0.93100
C122        C  0.63887185  0.92800660  0.21023197     0.92200
C123        C  0.63832451  0.00553851  0.21240785     0.84400
C124        C  0.63829934  0.92614624  0.28556299     0.90700
O125        O  0.34045257  0.93626400  0.27726432    -0.73100
O126        O  0.34064557  0.99762979  0.22233233    -0.74100
O127        O  0.34103221  0.93763787  0.22087356    -0.62700
O128        O  0.34007424  0.99611605  0.27890834    -0.71100
O129        O  0.38660371  0.99618679  0.27952596    -0.70700
O130        O  0.38756871  0.93806910  0.22110494    -0.61900
O131        O  0.38719234  0.99725294  0.22237987    -0.74400
O132        O  0.38698882  0.93701744  0.27826078    -0.73200
Cu133      Cu  0.33891749  0.96692227  0.24982159     1.04600
Cu134      Cu  0.38871471  0.96715669  0.25032642     1.04300
C135        C  0.36367337  0.92713098  0.28649126     0.93100
C136        C  0.36400638  0.00690175  0.21356244     0.92200
C137        C  0.36443867  0.92863276  0.21190400     0.84400
C138        C  0.36318668  0.00522511  0.28844615     0.90700
O139        O  0.47247491  0.12806791  0.02933636    -0.73100
O140        O  0.53096348  0.12711977  0.47175896    -0.74100
O141        O  0.47120600  0.12776849  0.47278488    -0.62700
O142        O  0.53229909  0.12762957  0.02821408    -0.71100
O143        O  0.53143321  0.08105782  0.02893717    -0.70700
O144        O  0.47123423  0.08118203  0.47266384    -0.61900
O145        O  0.53019095  0.08051750  0.47184942    -0.74400
O146        O  0.47236936  0.08146864  0.02981449    -0.73200
Cu147      Cu  0.50173700  0.12929058  0.50052276     1.04600
Cu148      Cu  0.50128410  0.07943236  0.50083162     1.04300
C149        C  0.46334675  0.10489726  0.03870709     0.93100
C150        C  0.53966275  0.10361884  0.46270101     0.92200
C151        C  0.46183815  0.10449029  0.46381148     0.84400
C152        C  0.54135979  0.10433091  0.03737751     0.90700
N153        N  0.40438427  0.11644473  0.41731259    -0.27400
N154        N  0.41353542  0.09181547  0.40881832    -0.35300
C155        C  0.43521880  0.08373448  0.42417539     0.00900
C156        C  0.44019860  0.10447618  0.44292544     0.06900
C157        C  0.42038855  0.12499093  0.43793071    -0.06200
H158        H  0.44666914  0.06431448  0.42170429     0.07600
H159        H  0.41727734  0.14427540  0.44896778     0.08800
Cu160      Cu  0.39627526  0.07050542  0.37649881     0.44200
Cu161      Cu  0.36878569  0.13560567  0.40213676     0.42000
Cu162      Cu  0.32857705  0.09423628  0.35400250     0.43900
N163        N  0.37505781  0.05275372  0.34437372    -0.34800
N164        N  0.34966048  0.06062443  0.33692986    -0.29100
C165        C  0.34141226  0.04473897  0.31611371    -0.05200
C166        C  0.36281749  0.02627293  0.30994267     0.07000
C167        C  0.38385468  0.03196669  0.32818502     0.00800
H168        H  0.32159987  0.04696246  0.30581607     0.08500
H169        H  0.40396005  0.02160291  0.32974887     0.07600
N170        N  0.31501499  0.13190809  0.37033110    -0.36300
N171        N  0.32999993  0.14724992  0.38710848    -0.28400
C172        C  0.31574613  0.17077492  0.39300420    -0.03700
C173        C  0.29070418  0.17037400  0.37909423     0.04900
C174        C  0.29078433  0.14527924  0.36518534     0.03000
H175        H  0.32288126  0.18657630  0.40694111     0.08100
H176        H  0.27459941  0.13750885  0.35196962     0.07000
N177        N  0.64955206  0.06076821  0.33423716    -0.27400
N178        N  0.62514658  0.05129027  0.34286143    -0.35300
C179        C  0.61703024  0.02981442  0.32719843     0.00900
C180        C  0.63757773  0.02537634  0.30816569     0.06900
C181        C  0.65791405  0.04526991  0.31324163    -0.06200
H182        H  0.59782332  0.01806790  0.32972692     0.07600
H183        H  0.67709111  0.04864059  0.30216972     0.08800
Cu184      Cu  0.60451518  0.06778226  0.37585675     0.44200
Cu185      Cu  0.66967751  0.09525337  0.35029795     0.42000
Cu186      Cu  0.63411732  0.13203846  0.40322057     0.43900
N187        N  0.58774852  0.08949986  0.40808902    -0.34800
N188        N  0.59768699  0.11367451  0.41696741    -0.29100
C189        C  0.58161248  0.12276575  0.43725677    -0.05200
C190        C  0.56094306  0.10309749  0.44167046     0.07000
C191        C  0.56543248  0.08223351  0.42295351     0.00800
H192        H  0.58537256  0.14173816  0.44859060     0.08500
H193        H  0.55333979  0.06324798  0.42026021     0.07600
N194        N  0.67215238  0.14464332  0.38762780    -0.36300
N195        N  0.68510473  0.13117260  0.36813169    -0.28400
C196        C  0.70858577  0.14512156  0.36167460    -0.03700
C197        C  0.71074303  0.16831554  0.37819855     0.04900
C198        C  0.68713388  0.16747219  0.39423885     0.03000
H199        H  0.72216846  0.13942801  0.34526405     0.08100
H200        H  0.68103268  0.18262283  0.40927375     0.07000
N201        N  0.65068382  0.06341821  0.16702798    -0.27400
N202        N  0.62605327  0.05462783  0.15830815    -0.35300
C203        C  0.61772291  0.03278126  0.17328243     0.00900
C204        C  0.63834909  0.02741407  0.19196321     0.06900
C205        C  0.65899321  0.04708326  0.18740262    -0.06200
H206        H  0.59831172  0.02142945  0.17050800     0.07600
H207        H  0.67828254  0.04979440  0.19847311     0.08800
Cu208      Cu  0.60545560  0.07203505  0.12588670     0.44200
Cu209      Cu  0.67075856  0.09847183  0.15240480     0.42000
Cu210      Cu  0.63434837  0.13584790  0.09935307     0.43900
N211        N  0.58936457  0.09225328  0.09262927    -0.34800
N212        N  0.59929801  0.11623218  0.08338266    -0.29100
C213        C  0.58368464  0.12436227  0.06235728    -0.05200
C214        C  0.56326627  0.10427338  0.05799758     0.07000
C215        C  0.56753899  0.08418378  0.07746063     0.00800
H216        H  0.58721532  0.14323992  0.05086303     0.08500
H217        H  0.55536289  0.06535594  0.08069572     0.07600
N218        N  0.67078773  0.14988286  0.11763275    -0.36300
N219        N  0.68413784  0.13613451  0.13669978    -0.28400
C220        C  0.70730833  0.15043098  0.14354921    -0.03700
C221        C  0.70881851  0.17424949  0.12781969     0.04900
C222        C  0.68516019  0.17331074  0.11182205     0.03000
H223        H  0.72185560  0.14388015  0.15890022     0.08100
H224        H  0.67920163  0.18817539  0.09652447     0.07000
N225        N  0.40709083  0.11783487  0.08593694    -0.27400
N226        N  0.41584689  0.09301990  0.09427157    -0.35300
C227        C  0.43716140  0.08451166  0.07865502     0.00900
C228        C  0.44223381  0.10518410  0.05993300     0.06900
C229        C  0.42292080  0.12604049  0.06515476    -0.06200
H230        H  0.44828191  0.06487749  0.08093487     0.07600
H231        H  0.42007138  0.14540654  0.05423518     0.08800
Cu232      Cu  0.39874904  0.07208556  0.12670074     0.44200
Cu233      Cu  0.37281183  0.13856991  0.10171620     0.42000
Cu234      Cu  0.33435754  0.10086619  0.15267858     0.43900
N235        N  0.37741870  0.05531404  0.15904260    -0.34800
N236        N  0.35304734  0.06494214  0.16765282    -0.29100
C237        C  0.34424818  0.04898011  0.18816353    -0.05200
C238        C  0.36433747  0.02870311  0.19292776     0.07000
C239        C  0.38510349  0.03336309  0.17421209     0.00800
H240        H  0.32507418  0.05239943  0.19924019     0.08500
H241        H  0.40422832  0.02147760  0.17159536     0.07600
N242        N  0.32218375  0.13941607  0.13750635    -0.36300
N243        N  0.33637099  0.15332748  0.11912012    -0.28400
C244        C  0.32283837  0.17734909  0.11352083    -0.03700
C245        C  0.29913755  0.17877477  0.12939779     0.04900
C246        C  0.29926322  0.15424505  0.14414058     0.03000
H247        H  0.32926698  0.19198929  0.09822779     0.08100
H248        H  0.28370332  0.14756307  0.15850776     0.07000
O249        O  0.97154426  0.58198603  0.21710319    -0.73100
O250        O  0.02906286  0.57963109  0.27623841    -0.74100
O251        O  0.97008220  0.58051856  0.27434933    -0.62700
O252        O  0.03051813  0.58053083  0.21916368    -0.71100
O253        O  0.03168022  0.62711621  0.22011168    -0.70700
O254        O  0.97020351  0.62711498  0.27501719    -0.61900
O255        O  0.03006212  0.62619588  0.27655398    -0.74400
O256        O  0.97193081  0.62853732  0.21825144    -0.73200
Cu257      Cu  0.00023228  0.57905687  0.24667646     1.04600
Cu258      Cu  0.00096572  0.62889247  0.24752604     1.04300
C259        C  0.96283850  0.60560211  0.20827195     0.93100
C260        C  0.03870428  0.60266608  0.28556451     0.92200
C261        C  0.96078007  0.60368601  0.28354545     0.84400
C262        C  0.04064156  0.60373459  0.21097862     0.90700
O263        O  0.02878646  0.30328914  0.27868049    -0.73100
O264        O  0.97054604  0.30511875  0.22071424    -0.74100
O265        O  0.03036323  0.30446259  0.22215536    -0.62700
O266        O  0.96907790  0.30400086  0.27707268    -0.71100
O267        O  0.97003007  0.35059158  0.27814826    -0.70700
O268        O  0.03042938  0.35106525  0.22276259    -0.61900
O269        O  0.97145674  0.35170398  0.22112612    -0.74400
O270        O  0.02898646  0.34986181  0.27984862    -0.73200
Cu271      Cu  0.99969441  0.30257024  0.24961046     1.04600
Cu272      Cu  0.00025401  0.35242927  0.25049897     1.04300
C273        C  0.03786121  0.32628441  0.28854270     0.93100
C274        C  0.96189033  0.32867288  0.21178608     0.92200
C275        C  0.03986150  0.32787488  0.21370408     0.84400
C276        C  0.96006368  0.32729120  0.28632077     0.90700
O277        O  0.16186258  0.49618222  0.02716533    -0.73100
O278        O  0.16047796  0.43415948  0.47241293    -0.74100
O279        O  0.16089405  0.49427857  0.47070173    -0.62700
O280        O  0.16146785  0.43607485  0.02902567    -0.71100
O281        O  0.11495318  0.43662863  0.02992900    -0.70700
O282        O  0.11436476  0.49416066  0.47107372    -0.61900
O283        O  0.11394844  0.43492381  0.47277178    -0.74400
O284        O  0.11533052  0.49585944  0.02811950    -0.73200
Cu285      Cu  0.16282598  0.46513982  0.49979829     1.04600
Cu286      Cu  0.11304785  0.46539426  0.50049789     1.04300
C287        C  0.13871073  0.50568889  0.03626584     0.93100
C288        C  0.13697009  0.42494215  0.46387939     0.92200
C289        C  0.13751472  0.50340506  0.46177269     0.84400
C290        C  0.13830061  0.42727482  0.03870165     0.90700
N291        N  0.09663224  0.61363231  0.33177778    -0.27400
N292        N  0.08652311  0.58975100  0.34114277    -0.35300
C293        C  0.06441396  0.58201021  0.32608304     0.00900
C294        C  0.06018125  0.60224897  0.30667320     0.06900
C295        C  0.08088013  0.62202548  0.31096105    -0.06200
H296        H  0.05215327  0.56322158  0.32922480     0.07600
H297        H  0.08468434  0.64077387  0.29935182     0.08800
Cu298      Cu  0.10308147  0.56916463  0.37436818     0.44200
Cu299      Cu  0.13246157  0.63290763  0.34651234     0.42000
Cu300      Cu  0.16773380  0.59734745  0.40109015     0.43900
N301        N  0.12417315  0.55202445  0.40702487    -0.34800
N302        N  0.14849098  0.56157404  0.41587302    -0.29100
C303        C  0.15722557  0.54539381  0.43626819    -0.05200
C304        C  0.13722645  0.52497715  0.44078363     0.07000
C305        C  0.11649687  0.52986073  0.42199992     0.00800
H306        H  0.17631844  0.54877001  0.44748323     0.08500
H307        H  0.09738163  0.51801484  0.41924769     0.07600
N308        N  0.18176015  0.63452864  0.38426521    -0.36300
N309        N  0.16912436  0.64728953  0.36414948    -0.28400
C310        C  0.18379370  0.67035952  0.35761090    -0.03700
C311        C  0.20657657  0.67244925  0.37463676     0.04900
C312        C  0.20463993  0.64929248  0.39122576     0.03000
H313        H  0.17818252  0.68466079  0.34171306     0.08100
H314        H  0.21910692  0.64320900  0.40682168     0.07000
N315        N  0.09275300  0.31208282  0.33718981    -0.27400
N316        N  0.08447569  0.33720692  0.34520046    -0.35300
C317        C  0.06382597  0.34620068  0.32901681     0.00900
C318        C  0.05863438  0.32558211  0.31019638     0.06900
C319        C  0.07722855  0.30419996  0.31601975    -0.06200
H320        H  0.05322173  0.36616082  0.33096987     0.07600
H321        H  0.07979622  0.28467264  0.30524929     0.08800
Cu322      Cu  0.10146770  0.35809118  0.37789122     0.44200
Cu323      Cu  0.12636080  0.29077238  0.35393553     0.42000
Cu324      Cu  0.16614146  0.33020682  0.40345050     0.43900
N325        N  0.12287011  0.37549778  0.41006033    -0.34800
N326        N  0.14736083  0.36608147  0.41854738    -0.29100
C327        C  0.15634199  0.38237686  0.43879453    -0.05200
C328        C  0.13630454  0.40273831  0.44351203     0.07000
C329        C  0.11532489  0.39771042  0.42504074     0.00800
H330        H  0.17567524  0.37920212  0.44967702     0.08500
H331        H  0.09618683  0.40956563  0.42241738     0.07600
N332        N  0.17814556  0.29142635  0.38856737    -0.36300
N333        N  0.16332149  0.27668260  0.37119104    -0.28400
C334        C  0.17682257  0.25250398  0.36601008    -0.03700
C335        C  0.20120887  0.25196492  0.38096662     0.04900
C336        C  0.20150085  0.27708655  0.39479556     0.03000
H337        H  0.16990049  0.23707133  0.35159996     0.08100
H338        H  0.21758386  0.28445993  0.40832734     0.07000
N339        N  0.15102022  0.37094904  0.08634481    -0.27400
N340        N  0.12639387  0.38006166  0.09480804    -0.35300
C341        C  0.11797618  0.40136890  0.07909178     0.00900
C342        C  0.13851631  0.40614636  0.06011383     0.06900
C343        C  0.15918922  0.38656182  0.06535018    -0.06200
H344        H  0.09848903  0.41270737  0.08147484     0.07600
H345        H  0.17841984  0.38340844  0.05429721     0.08800
Cu346      Cu  0.10577393  0.36309254  0.12757376     0.44200
Cu347      Cu  0.17127824  0.33630308  0.10251299     0.42000
Cu348      Cu  0.13330937  0.29733263  0.15310029     0.43900
N349        N  0.08879117  0.34145168  0.15971047    -0.34800
N350        N  0.09790769  0.31675558  0.16802638    -0.29100
C351        C  0.08167583  0.30789679  0.18829436    -0.05200
C352        C  0.06174658  0.32824816  0.19322044     0.07000
C353        C  0.06687633  0.34925830  0.17487231     0.00800
H354        H  0.08465354  0.28845906  0.19907152     0.08500
H355        H  0.05530199  0.36860711  0.17245597     0.07600
N356        N  0.17127406  0.28465558  0.13733024    -0.36300
N357        N  0.18536898  0.29894538  0.11913883    -0.28400
C358        C  0.20914646  0.28503793  0.11337150    -0.03700
C359        C  0.20986280  0.26071296  0.12844855     0.04900
C360        C  0.18567736  0.26138075  0.14367267     0.03000
H361        H  0.22463792  0.29196457  0.09904363     0.08100
H362        H  0.17924702  0.24658088  0.15881489     0.07000
N363        N  0.09921428  0.61510791  0.16616410    -0.27400
N364        N  0.09003622  0.59064680  0.15729523    -0.35300
C365        C  0.06793293  0.58269188  0.17209728     0.00900
C366        C  0.06278758  0.60340746  0.19080070     0.06900
C367        C  0.08289629  0.62367283  0.18647933    -0.06200
H368        H  0.05615757  0.56355546  0.16909410     0.07600
H369        H  0.08577009  0.64298298  0.19752394     0.08800
Cu370      Cu  0.10690812  0.57007867  0.12457746     0.44200
Cu371      Cu  0.13402227  0.63527884  0.15109883     0.42000
Cu372      Cu  0.16920023  0.60076803  0.09592237     0.43900
N373        N  0.12677428  0.55439103  0.09094819    -0.34800
N374        N  0.15023770  0.56482307  0.08103575    -0.29100
C375        C  0.15836092  0.54900258  0.06010470    -0.05200
C376        C  0.13877165  0.52795215  0.05652779     0.07000
C377        C  0.11898780  0.53208708  0.07628187     0.00800
H378        H  0.17684868  0.55283850  0.04814182     0.08500
H379        H  0.10058808  0.51945901  0.08008503     0.07600
N380        N  0.18293376  0.63780506  0.11336387    -0.36300
N381        N  0.17010177  0.65033755  0.13350139    -0.28400
C382        C  0.18447030  0.67348165  0.14036151    -0.03700
C383        C  0.20741151  0.67584030  0.12354963     0.04900
C384        C  0.20578165  0.65273032  0.10679239     0.03000
H385        H  0.17889996  0.68708459  0.15683982     0.08100
H386        H  0.22013602  0.64713519  0.09092603     0.07000
O387        O  0.88669887  0.43617446  0.46960585    -0.73100
O388        O  0.88541760  0.49664069  0.02540630    -0.74100
O389        O  0.88672636  0.43765638  0.02663999    -0.62700
O390        O  0.88545357  0.49523799  0.46801819    -0.71100
O391        O  0.83892447  0.49493206  0.46844477    -0.70700
O392        O  0.84019846  0.43643863  0.02633953    -0.61900
O393        O  0.83887493  0.49616918  0.02528136    -0.74400
O394        O  0.84015212  0.43515682  0.46997903    -0.73200
Cu395      Cu  0.88769707  0.46651902  0.99740818     1.04600
Cu396      Cu  0.83789975  0.46568688  0.99749634     1.04300
C397        C  0.86356096  0.42609487  0.46112203     0.93100
C398        C  0.86202212  0.50561142  0.03441129     0.92200
C399        C  0.86364916  0.42791325  0.03560825     0.84400
C400        C  0.86203630  0.50397733  0.45885953     0.90700
N401        N  0.90138316  0.31615283  0.33120502    -0.27400
N402        N  0.91145835  0.34003373  0.34062139    -0.35300
C403        C  0.93373868  0.34768881  0.32595769     0.00900
C404        C  0.93812153  0.32741742  0.30670286     0.06900
C405        C  0.91737845  0.30764630  0.31059894    -0.06200
H406        H  0.94606159  0.36640518  0.32934250     0.07600
H407        H  0.91377093  0.28884093  0.29897389     0.08800
Cu408      Cu  0.89540368  0.36074836  0.37347915     0.44200
Cu409      Cu  0.86553448  0.29712132  0.34583614     0.42000
Cu410      Cu  0.83080729  0.33341153  0.40015332     0.43900
N411        N  0.87562552  0.37725945  0.40664860    -0.34800
N412        N  0.85131930  0.36799778  0.41570798    -0.29100
C413        C  0.84330707  0.38396651  0.43649833    -0.05200
C414        C  0.86378236  0.40390661  0.44089716     0.07000
C415        C  0.88404745  0.39902059  0.42174916     0.00800
H416        H  0.82416622  0.38105946  0.44774218     0.08500
H417        H  0.90312196  0.41081400  0.41857249     0.07600
N418        N  0.81593553  0.29680075  0.38303107    -0.36300
N419        N  0.82862003  0.28347272  0.36326321    -0.28400
C420        C  0.81403757  0.26017335  0.35731206    -0.03700
C421        C  0.79093999  0.25891242  0.37398509     0.04900
C422        C  0.79300883  0.28232111  0.39024425     0.03000
H423        H  0.81991190  0.24515131  0.34208082     0.08100
H424        H  0.77962355  0.28795132  0.40682566     0.07000
N425        N  0.84936958  0.55933804  0.41022920    -0.27400
N426        N  0.87412340  0.55020973  0.40208862    -0.35300
C427        C  0.88240660  0.52908677  0.41809067     0.00900
C428        C  0.86173224  0.52455257  0.43698822     0.06900
C429        C  0.84103970  0.54395871  0.43132262    -0.06200
H430        H  0.90200737  0.51785856  0.41610121     0.07600
H431        H  0.82176331  0.54728543  0.44225491     0.08800
Cu432      Cu  0.89556624  0.56733498  0.36984345     0.44200
Cu433      Cu  0.82906623  0.59390278  0.39389907     0.42000
Cu434      Cu  0.86699635  0.63298426  0.34423460     0.43900
N435        N  0.91253519  0.58956859  0.33801995    -0.34800
N436        N  0.90287403  0.61402615  0.32958842    -0.29100
C437        C  0.91885400  0.62309473  0.30921693    -0.05200
C438        C  0.93920829  0.60317272  0.30434534     0.07000
C439        C  0.93461400  0.58218217  0.32286523     0.00800
H440        H  0.91532975  0.64231525  0.29824416     0.08500
H441        H  0.94653707  0.56303957  0.32526536     0.07600
N442        N  0.82859218  0.64557667  0.35931104    -0.36300
N443        N  0.81434097  0.63099739  0.37717136    -0.28400
C444        C  0.79015869  0.64444292  0.38247074    -0.03700
C445        C  0.78933070  0.66880887  0.36745265     0.04900
C446        C  0.81393588  0.66867361  0.35279442     0.03000
H447        H  0.77450621  0.63722942  0.39650484     0.08100
H448        H  0.82051232  0.68383216  0.33801999     0.07000
N449        N  0.84970538  0.56176675  0.08226021    -0.27400
N450        N  0.87481615  0.55322150  0.08989679    -0.35300
C451        C  0.88297190  0.53192832  0.07404912     0.00900
C452        C  0.86185672  0.52669949  0.05579034     0.06900
C453        C  0.84097265  0.54582510  0.06166542    -0.06200
H454        H  0.90282795  0.52110367  0.07566760     0.07600
H455        H  0.82138010  0.54867546  0.05112563     0.08800
Cu456      Cu  0.89708223  0.57144713  0.12109295     0.44200
Cu457      Cu  0.83030414  0.59690982  0.09801138     0.42000
Cu458      Cu  0.87249634  0.63924395  0.14359853     0.43900
N459        N  0.91555502  0.59375904  0.15215178    -0.34800
N460        N  0.90750249  0.61915388  0.15957567    -0.29100
C461        C  0.92357464  0.62763722  0.18020805    -0.05200
C462        C  0.94223010  0.60632782  0.18634449     0.07000
C463        C  0.93655463  0.58521339  0.16815230     0.00800
H464        H  0.92104002  0.64732912  0.19070668     0.08500
H465        H  0.94677913  0.56500455  0.16677671     0.07600
N466        N  0.83354644  0.65142454  0.12867992    -0.36300
N467        N  0.81813854  0.63569871  0.11260816    -0.28400
C468        C  0.79418345  0.64926823  0.10691667    -0.03700
C469        C  0.79416582  0.67467904  0.12035927     0.04900
C470        C  0.81963671  0.67542927  0.13369890     0.03000
H471        H  0.77857582  0.64144599  0.09317927     0.08100
H472        H  0.82739216  0.69215051  0.14632318     0.07000
N473        N  0.90430210  0.31814705  0.16540876    -0.27400
N474        N  0.91495382  0.34165506  0.15578509    -0.35300
C475        C  0.93702574  0.34920629  0.17093250     0.00900
C476        C  0.94057853  0.32920785  0.19066505     0.06900
C477        C  0.91956361  0.30979481  0.18653168    -0.06200
H478        H  0.94973277  0.36766138  0.16761928     0.07600
H479        H  0.91526470  0.29130139  0.19835487     0.08800
Cu480      Cu  0.89892355  0.36196916  0.12229369     0.44200
Cu481      Cu  0.86875941  0.29917732  0.15035701     0.42000
Cu482      Cu  0.83308780  0.33470700  0.09648759     0.43900
N483        N  0.87734632  0.37932275  0.09014709    -0.34800
N484        N  0.85266099  0.37022236  0.08180440    -0.29100
C485        C  0.84377656  0.38651358  0.06158843    -0.05200
C486        C  0.86405651  0.40648881  0.05663684     0.07000
C487        C  0.88509726  0.40131459  0.07500673     0.00800
H488        H  0.82439881  0.38345330  0.05074370     0.08500
H489        H  0.90449866  0.41279069  0.07733367     0.07600
N490        N  0.81929178  0.29748885  0.11316975    -0.36300
N491        N  0.83242495  0.28455087  0.13286108    -0.28400
C492        C  0.81801410  0.26143429  0.13958911    -0.03700
C493        C  0.79451849  0.25980353  0.12349055     0.04900
C494        C  0.79615071  0.28289657  0.10677856     0.03000
H495        H  0.82387072  0.24725395  0.15550475     0.08100
H496        H  0.78166693  0.28874157  0.09111700     0.07000
C497        C  0.26029879  0.24844336  0.13051174    -0.26500
C498        C  0.23237523  0.23940109  0.12882571    -0.14500
C499        C  0.22670091  0.21033002  0.12695863     0.36100
C500        C  0.24886122  0.19115476  0.12714251    -0.25900
C501        C  0.27675574  0.20017948  0.12893704    -0.15100
C502        C  0.28246412  0.22921905  0.13084725     0.37200
N503        N  0.31031820  0.23977092  0.13437888    -0.89400
H504        H  0.26490994  0.27064430  0.13208706     0.18300
H505        H  0.24424135  0.16895649  0.12552856     0.18300
N506        N  0.19886427  0.19962712  0.12372530    -0.88400
H507        H  0.32218314  0.23491263  0.11752471     0.35700
H508        H  0.31923692  0.22998541  0.15105933     0.40800
H509        H  0.18952450  0.20958927  0.10734617     0.40400
H510        H  0.18729409  0.20397724  0.14087182     0.35300
C511        C  0.77980386  0.21040576  0.13035564    -0.26500
C512        C  0.77230120  0.23822829  0.12468428    -0.14500
C513        C  0.74382674  0.24503863  0.12067873     0.36100
C514        C  0.72357800  0.22374065  0.12187200    -0.25900
C515        C  0.73107342  0.19585929  0.12729729    -0.15100
C516        C  0.75956767  0.18906621  0.13142981     0.37200
N517        N  0.76802481  0.16050132  0.13584507    -0.89400
H518        H  0.80168049  0.20514984  0.13327422     0.18300
H519        H  0.70171280  0.22904554  0.11898537     0.18300
N520        N  0.73544435  0.27359264  0.11608079    -0.88400
H521        H  0.78968844  0.15919015  0.13871078     0.35700
H522        H  0.76356515  0.14921173  0.11842826     0.40800
H523        H  0.74012892  0.28504584  0.13334649     0.40400
H524        H  0.71376116  0.27496051  0.11339276     0.35300
C525        C  0.77959718  0.20824154  0.37508505    -0.26500
C526        C  0.77006626  0.23608536  0.37535017    -0.14500
C527        C  0.74091726  0.24138623  0.37626219     0.36100
C528        C  0.72215856  0.21891169  0.37723544    -0.25900
C529        C  0.73168112  0.19107441  0.37699695    -0.15100
C530        C  0.76082576  0.18575329  0.37605361     0.37200
N531        N  0.77208156  0.15792370  0.37724559    -0.89400
H532        H  0.80188889  0.20391108  0.37450914     0.18300
H533        H  0.69986725  0.22325898  0.37774217     0.18300
N534        N  0.72962970  0.26919373  0.37499819    -0.88400
H535        H  0.76609866  0.14692776  0.36009436     0.35700
H536        H  0.76392160  0.14783220  0.39402090     0.40800
H537        H  0.73776585  0.27923734  0.35815136     0.40400
H538        H  0.73557286  0.28022432  0.39210714     0.35300
C539        C  0.24054269  0.18271793  0.38445609    -0.26500
C540        C  0.26811234  0.19156233  0.37960448    -0.14500
C541        C  0.27338157  0.22030880  0.37478803     0.36100
C542        C  0.25122983  0.23950087  0.37550996    -0.25900
C543        C  0.22368458  0.23067631  0.38040682    -0.15100
C544        C  0.21835205  0.20191872  0.38500641     0.37200
N545        N  0.19089062  0.19174986  0.39125579    -0.89400
H546        H  0.23627230  0.16074278  0.38820163     0.18300
H547        H  0.25549856  0.26146887  0.37171842     0.18300
N548        N  0.30067757  0.23047875  0.36789910    -0.88400
H549        H  0.17772055  0.19542711  0.37499305     0.35700
H550        H  0.18331054  0.20283637  0.40779845     0.40800
H551        H  0.30800499  0.21914820  0.35139840     0.40400
H552        H  0.31419199  0.22729494  0.38398276     0.35300
C553        C  0.25715451  0.68954968  0.11693723    -0.26500
C554        C  0.22979229  0.69739526  0.12403427    -0.14500
C555        C  0.22438237  0.72546929  0.13148700     0.36100
C556        C  0.24652380  0.74483928  0.13208949    -0.25900
C557        C  0.27388889  0.73701057  0.12498400    -0.15100
C558        C  0.27930219  0.70892058  0.11753044     0.37200
N559        N  0.30728340  0.69989913  0.11124029    -0.89400
H560        H  0.26147157  0.66797654  0.11151406     0.18300
H561        H  0.24217275  0.76641598  0.13746288     0.18300
N562        N  0.19638136  0.73448922  0.13769118    -0.88400
H563        H  0.30755632  0.67868077  0.10592755     0.35700
H564        H  0.31928727  0.70175513  0.12863218     0.40800
H565        H  0.18443190  0.73260152  0.12026601     0.40400
H566        H  0.19608984  0.75571737  0.14296021     0.35300
C567        C  0.78125402  0.72507144  0.11763535    -0.26500
C568        C  0.77252258  0.69705495  0.11983175    -0.14500
C569        C  0.74352567  0.69131519  0.12240421     0.36100
C570        C  0.72423735  0.71343622  0.12248862    -0.25900
C571        C  0.73294094  0.74144853  0.12022123    -0.15100
C572        C  0.76193860  0.74720294  0.11765874     0.37200
N573        N  0.77244542  0.77504799  0.11390241    -0.89400
H574        H  0.80334933  0.72983578  0.11552986     0.18300
H575        H  0.70215266  0.70864472  0.12463010     0.18300
N576        N  0.73296233  0.66347639  0.12607610    -0.88400
H577        H  0.76875095  0.78674538  0.13118983     0.35700
H578        H  0.76195631  0.78424316  0.09781777     0.40800
H579        H  0.74354410  0.65412447  0.14204870     0.40400
H580        H  0.73640031  0.65189182  0.10869869     0.35300
C581        C  0.23828543  0.70421842  0.34944099    -0.26500
C582        C  0.22880558  0.69413733  0.37418537    -0.14500
C583        C  0.24071111  0.70478765  0.39795359     0.36100
C584        C  0.26209461  0.72497392  0.39640042    -0.25900
C585        C  0.27158406  0.73506969  0.37165820    -0.15100
C586        C  0.25973519  0.72434830  0.34788312     0.37200
N587        N  0.26996856  0.73333151  0.32226494    -0.89400
H588        H  0.22937917  0.69582931  0.33118783     0.18300
H589        H  0.27094950  0.73337082  0.41467099     0.18300
N590        N  0.23060043  0.69565714  0.42357046    -0.88400
H591        H  0.25893672  0.72349371  0.30682320     0.35700
H592        H  0.29078002  0.72667766  0.32063747     0.40800
H593        H  0.20976677  0.70221430  0.42529072     0.40400
H594        H  0.24164537  0.70547274  0.43901611     0.35300
C595        C  0.74984440  0.73807985  0.37035998    -0.26500
C596        C  0.72213088  0.72919594  0.36647711    -0.14500
C597        C  0.71666536  0.70029420  0.36278335     0.36100
C598        C  0.73888260  0.68105316  0.36323500    -0.25900
C599        C  0.76663889  0.68999565  0.36695727    -0.15100
C600        C  0.77203498  0.71890130  0.37077075     0.37200
N601        N  0.79960478  0.72933304  0.37615828    -0.89400
H602        H  0.75426914  0.76015010  0.37342245     0.18300
H603        H  0.73448427  0.65897034  0.36022572     0.18300
N604        N  0.68902646  0.69000038  0.35747881    -0.88400
H605        H  0.81231071  0.72561977  0.35957381     0.35700
H606        H  0.80776969  0.71857781  0.39262111     0.40800
H607        H  0.68104846  0.70054129  0.34082205     0.40400
H608        H  0.67629250  0.69430450  0.37394186     0.35300
O609        O  0.47124069  0.85198862  0.52637104    -0.73100
O610        O  0.52990383  0.85046704  0.96913385    -0.74100
O611        O  0.47090988  0.85123235  0.96935045    -0.62700
O612        O  0.53004830  0.85092492  0.52645134    -0.71100
O613        O  0.52970254  0.80433912  0.52663505    -0.70700
O614        O  0.46995860  0.80465039  0.97002443    -0.61900
O615        O  0.52972228  0.80388342  0.96980336    -0.74400
O616        O  0.47009578  0.80539184  0.52643066    -0.73200
Cu617      Cu  0.50058923  0.85277202  0.49779650     1.04600
Cu618      Cu  0.49988827  0.80291636  0.99822103     1.04300
C619        C  0.46149966  0.82896295  0.53542211     0.93100
C620        C  0.53886425  0.82699172  0.96027451     0.92200
C621        C  0.46103330  0.82798016  0.96083384     0.84400
C622        C  0.53892731  0.82760944  0.53575323     0.90700
N623        N  0.64816080  0.86699031  0.83039521    -0.27400
N624        N  0.62427973  0.87727264  0.83959653    -0.35300
C625        C  0.61727884  0.89999789  0.82516559     0.00900
C626        C  0.63794500  0.90443277  0.80629340     0.06900
C627        C  0.65730660  0.88328143  0.81025071    -0.06200
H628        H  0.59851962  0.91235760  0.82818256     0.07600
H629        H  0.67602964  0.87932358  0.79864880     0.08800
Cu630      Cu  0.60226546  0.86007464  0.87138287     0.44200
Cu631      Cu  0.66563521  0.82962525  0.84364191     0.42000
Cu632      Cu  0.62635336  0.79180824  0.89359886     0.43900
N633        N  0.58520802  0.83873403  0.90366103    -0.34800
N634        N  0.59334207  0.81339153  0.91109892    -0.29100
C635        C  0.57797649  0.80522614  0.93224122    -0.05200
C636        C  0.55962844  0.82662330  0.93864352     0.07000
C637        C  0.56476555  0.84756215  0.92017815     0.00800
H638        H  0.58043310  0.78543676  0.94253656     0.08500
H639        H  0.55424367  0.86760886  0.91868070     0.07600
N640        N  0.66242694  0.77624183  0.87578432    -0.36300
N641        N  0.67710754  0.79038230  0.85790883    -0.28400
C642        C  0.70006808  0.77548555  0.85145076    -0.03700
C643        C  0.69970039  0.75062728  0.86570472     0.04900
C644        C  0.67561723  0.75191706  0.88110340     0.03000
H645        H  0.71608949  0.78240898  0.83766092     0.08100
H646        H  0.66881193  0.73699288  0.89600446     0.07000
N647        N  0.35173022  0.86815034  0.83094721    -0.27400
N648        N  0.37511307  0.87844732  0.84118590    -0.35300
C649        C  0.38310756  0.90085504  0.82678678     0.00900
C650        C  0.36354759  0.90507336  0.80684268     0.06900
C651        C  0.34387681  0.88409768  0.81009053    -0.06200
H652        H  0.40156245  0.91335010  0.83078670     0.07600
H653        H  0.32557993  0.88030467  0.79784094     0.08800
Cu654      Cu  0.39481838  0.86188039  0.87447873     0.44200
Cu655      Cu  0.33259256  0.83195560  0.84484153     0.42000
Cu656      Cu  0.36647247  0.79743499  0.90108114     0.43900
N657        N  0.41179409  0.84092298  0.90687235    -0.34800
N658        N  0.40211364  0.81679078  0.91601852    -0.29100
C659        C  0.41845493  0.80818673  0.93633695    -0.05200
C660        C  0.43907051  0.82811574  0.94035120     0.07000
C661        C  0.43420029  0.84860629  0.92142449     0.00800
H662        H  0.41516728  0.78919234  0.94772303     0.08500
H663        H  0.44622719  0.86754034  0.91823845     0.07600
N664        N  0.33061191  0.78255138  0.88242198    -0.36300
N665        N  0.31852379  0.79483281  0.86173581    -0.28400
C666        C  0.29600502  0.77973010  0.85436592    -0.03700
C667        C  0.29375140  0.75684043  0.87126819     0.04900
C668        C  0.31597198  0.75945971  0.88888988     0.03000
H669        H  0.28193418  0.78547186  0.83833040     0.08100
H670        H  0.32119662  0.74554052  0.90520814     0.07000
N671        N  0.59547013  0.81607073  0.58334065    -0.27400
N672        N  0.58687464  0.84129504  0.59075324    -0.35300
C673        C  0.56531941  0.84911253  0.57511869     0.00900
C674        C  0.55987389  0.82765342  0.55725975     0.06900
C675        C  0.57917662  0.80692227  0.56316116    -0.06200
H676        H  0.55453307  0.86902563  0.57655042     0.07600
H677        H  0.58202594  0.78722415  0.55274775     0.08800
Cu678      Cu  0.60496479  0.86421572  0.62155086     0.44200
Cu679      Cu  0.63145515  0.79709568  0.59830321     0.42000
Cu680      Cu  0.67279484  0.84011688  0.64338573     0.43900
N681        N  0.62673640  0.88203796  0.65323302    -0.34800
N682        N  0.65216100  0.87398231  0.66039970    -0.29100
C683        C  0.66054743  0.88939278  0.68146957    -0.05200
C684        C  0.63917131  0.90766081  0.68816367     0.07000
C685        C  0.61804585  0.90246433  0.66987939     0.00800
H686        H  0.68033559  0.88679041  0.69172508     0.08500
H687        H  0.59785909  0.91273602  0.66875565     0.07600
N688        N  0.68638090  0.80208258  0.62796037    -0.36300
N689        N  0.67111418  0.78604956  0.61205716    -0.28400
C690        C  0.68551287  0.76244742  0.60665819    -0.03700
C691        C  0.71118675  0.76372762  0.61959039     0.04900
C692        C  0.71080277  0.78909214  0.63315350     0.03000
H693        H  0.67783169  0.74551455  0.59424857     0.08100
H694        H  0.72638434  0.79712057  0.64681261     0.07000
N695        N  0.35334528  0.87050486  0.66591767    -0.27400
N696        N  0.37727770  0.88052653  0.65662894    -0.35300
C697        C  0.38500460  0.90268853  0.67161543     0.00900
C698        C  0.36471830  0.90704252  0.69092630     0.06900
C699        C  0.34492655  0.88635217  0.68668991    -0.06200
H700        H  0.40382301  0.91489705  0.66849037     0.07600
H701        H  0.32616535  0.88261538  0.69828852     0.08800
Cu702      Cu  0.39797851  0.86388232  0.62366900     0.44200
Cu703      Cu  0.33408721  0.83464724  0.65119301     0.42000
Cu704      Cu  0.36945921  0.79895134  0.59738433     0.43900
N705        N  0.41430624  0.84267177  0.59086103    -0.34800
N706        N  0.40443689  0.81843501  0.58208936    -0.29100
C707        C  0.41993087  0.80969460  0.56127559    -0.05200
C708        C  0.44023088  0.82960979  0.55644831     0.07000
C709        C  0.43610301  0.85028520  0.57545182     0.00800
H710        H  0.41622820  0.79059705  0.55011469     0.08500
H711        H  0.44822269  0.86926033  0.57809123     0.07600
N712        N  0.33334665  0.78418687  0.61492947    -0.36300
N713        N  0.32034767  0.79713685  0.63470708    -0.28400
C714        C  0.29758129  0.78220052  0.64152822    -0.03700
C715        C  0.29619539  0.75866030  0.62526442     0.04900
C716        C  0.31918810  0.76079878  0.60850067     0.03000
H717        H  0.28311465  0.78808715  0.65720516     0.08100
H718        H  0.32494250  0.74689685  0.59231334     0.07000
O719        O  0.66121505  0.99520585  0.77789855    -0.73100
O720        O  0.66202277  0.93681757  0.71992676    -0.74100
O721        O  0.66159664  0.99641567  0.72152069    -0.62700
O722        O  0.66164952  0.93532324  0.77666744    -0.71100
O723        O  0.61510185  0.93569813  0.77668071    -0.70700
O724        O  0.61504082  0.99580543  0.72083913    -0.61900
O725        O  0.61548620  0.93686379  0.71937953    -0.74400
O726        O  0.61466626  0.99471215  0.77784561    -0.73200
Cu727      Cu  0.66326718  0.96592181  0.74903233     1.04600
Cu728      Cu  0.61345355  0.96572354  0.74869106     1.04300
C729        C  0.63782254  0.00410505  0.78698497     0.93100
C730        C  0.63887193  0.92800654  0.71023199     0.92200
C731        C  0.63832462  0.00553844  0.71240776     0.84400
C732        C  0.63829943  0.92614626  0.78556302     0.90700
O733        O  0.34045277  0.93626395  0.77726424    -0.73100
O734        O  0.34064563  0.99762979  0.72233231    -0.74100
O735        O  0.34103236  0.93763791  0.72087352    -0.62700
O736        O  0.34007432  0.99611604  0.77890829    -0.71100
O737        O  0.38660379  0.99618682  0.77952596    -0.70700
O738        O  0.38756886  0.93806913  0.72110495    -0.61900
O739        O  0.38719240  0.99725300  0.72237985    -0.74400
O740        O  0.38698902  0.93701747  0.77826079    -0.73200
Cu741      Cu  0.33891762  0.96692226  0.74982155     1.04600
Cu742      Cu  0.38871484  0.96715673  0.75032641     1.04300
C743        C  0.36367357  0.92713096  0.78649122     0.93100
C744        C  0.36400642  0.00690179  0.71356243     0.92200
C745        C  0.36443883  0.92863278  0.71190399     0.84400
C746        C  0.36318674  0.00522511  0.78844614     0.90700
O747        O  0.47247489  0.12806790  0.52933637    -0.73100
O748        O  0.53096355  0.12711975  0.97175896    -0.74100
O749        O  0.47120600  0.12776852  0.97278487    -0.62700
O750        O  0.53229904  0.12762958  0.52821414    -0.71100
O751        O  0.53143322  0.08105784  0.52893719    -0.70700
O752        O  0.47123422  0.08118206  0.97266383    -0.61900
O753        O  0.53019094  0.08051747  0.97184941    -0.74400
O754        O  0.47236935  0.08146864  0.52981449    -0.73200
Cu755      Cu  0.50173703  0.12929061  0.00052273     1.04600
Cu756      Cu  0.50128409  0.07943235  0.00083160     1.04300
C757        C  0.46334674  0.10489726  0.53870709     0.93100
C758        C  0.53966280  0.10361880  0.96270103     0.92200
C759        C  0.46183815  0.10449032  0.96381148     0.84400
C760        C  0.54135976  0.10433093  0.53737757     0.90700
N761        N  0.40438415  0.11644466  0.91731272    -0.27400
N762        N  0.41353541  0.09181550  0.90881831    -0.35300
C763        C  0.43521890  0.08373455  0.92417529     0.00900
C764        C  0.44019859  0.10447619  0.94292544     0.06900
C765        C  0.42038841  0.12499085  0.93793085    -0.06200
H766        H  0.44666936  0.06431463  0.92170409     0.07600
H767        H  0.41727714  0.14427525  0.94896802     0.08800
Cu768      Cu  0.39627527  0.07050544  0.87649880     0.44200
Cu769      Cu  0.36878563  0.13560569  0.90213693     0.42000
Cu770      Cu  0.32857717  0.09423619  0.85400256     0.43900
N771        N  0.37505788  0.05275367  0.84437373    -0.34800
N772        N  0.34966050  0.06062430  0.83692997    -0.29100
C773        C  0.34141225  0.04473884  0.81611383    -0.05200
C774        C  0.36281753  0.02627289  0.80994268     0.07000
C775        C  0.38385477  0.03196669  0.82818498     0.00800
H776        H  0.32159983  0.04696233  0.80581624     0.08500
H777        H  0.40396016  0.02160296  0.82974878     0.07600
N778        N  0.31501503  0.13190805  0.87033112    -0.36300
N779        N  0.32999994  0.14724993  0.88710849    -0.28400
C780        C  0.31574609  0.17077491  0.89300418    -0.03700
C781        C  0.29070414  0.17037394  0.87909422     0.04900
C782        C  0.29078434  0.14527916  0.86518536     0.03000
H783        H  0.32288118  0.18657630  0.90694109     0.08100
H784        H  0.27459939  0.13750873  0.85196969     0.07000
N785        N  0.64955205  0.06076830  0.83423710    -0.27400
N786        N  0.62514659  0.05129032  0.84286140    -0.35300
C787        C  0.61703027  0.02981449  0.82719837     0.00900
C788        C  0.63757773  0.02537642  0.80816560     0.06900
C789        C  0.65791400  0.04527003  0.81324154    -0.06200
H790        H  0.59782334  0.01806797  0.82972683     0.07600
H791        H  0.67709101  0.04864079  0.80216956     0.08800
Cu792      Cu  0.60451519  0.06778228  0.87585675     0.44200
Cu793      Cu  0.66967748  0.09525358  0.85029778     0.42000
Cu794      Cu  0.63411749  0.13203846  0.90322077     0.43900
N795        N  0.58774863  0.08949986  0.90808908    -0.34800
N796        N  0.59768709  0.11367451  0.91696750    -0.29100
C797        C  0.58161257  0.12276571  0.93725685    -0.05200
C798        C  0.56094317  0.10309742  0.94167054     0.07000
C799        C  0.56543260  0.08223347  0.92295356     0.00800
H800        H  0.58537261  0.14173814  0.94859066     0.08500
H801        H  0.55333990  0.06324796  0.92026022     0.07600
N802        N  0.67215254  0.14464327  0.88762799    -0.36300
N803        N  0.68510482  0.13117267  0.86813174    -0.28400
C804        C  0.70858583  0.14512167  0.86167465    -0.03700
C805        C  0.71074315  0.16831554  0.87819874     0.04900
C806        C  0.68713404  0.16747211  0.89423909     0.03000
H807        H  0.72216847  0.13942823  0.84526402     0.08100
H808        H  0.68103281  0.18262273  0.90927402     0.07000
N809        N  0.65068389  0.06341821  0.66702798    -0.27400
N810        N  0.62605331  0.05462786  0.65830817    -0.35300
C811        C  0.61772295  0.03278127  0.67328242     0.00900
C812        C  0.63834915  0.02741401  0.69196314     0.06900
C813        C  0.65899326  0.04708320  0.68740258    -0.06200
H814        H  0.59831174  0.02142950  0.67050801     0.07600
H815        H  0.67828260  0.04979424  0.69847306     0.08800
Cu816      Cu  0.60545557  0.07203511  0.62588683     0.44200
Cu817      Cu  0.67075872  0.09847179  0.65240482     0.42000
Cu818      Cu  0.63434842  0.13584777  0.59935310     0.43900
N819        N  0.58936450  0.09225331  0.59262938    -0.34800
N820        N  0.59929799  0.11623216  0.58338272    -0.29100
C821        C  0.58368463  0.12436226  0.56235734    -0.05200
C822        C  0.56326622  0.10427341  0.55799767     0.07000
C823        C  0.56753892  0.08418383  0.57746076     0.00800
H824        H  0.58721536  0.14323987  0.55086305     0.08500
H825        H  0.55536284  0.06535598  0.58069586     0.07600
N826        N  0.67078783  0.14988279  0.61763273    -0.36300
N827        N  0.68413801  0.13613441  0.63669969    -0.28400
C828        C  0.70730852  0.15043084  0.64354909    -0.03700
C829        C  0.70881862  0.17424941  0.62781964     0.04900
C830        C  0.68516026  0.17331069  0.61182205     0.03000
H831        H  0.72185584  0.14387994  0.65890004     0.08100
H832        H  0.67920167  0.18817537  0.59652451     0.07000
N833        N  0.40709081  0.11783488  0.58593691    -0.27400
N834        N  0.41584682  0.09301988  0.59427151    -0.35300
C835        C  0.43716132  0.08451163  0.57865497     0.00900
C836        C  0.44223377  0.10518409  0.55993298     0.06900
C837        C  0.42292079  0.12604051  0.56515473    -0.06200
H838        H  0.44828182  0.06487744  0.58093485     0.07600
H839        H  0.42007139  0.14540658  0.55423518     0.08800
Cu840      Cu  0.39874901  0.07208558  0.62670073     0.44200
Cu841      Cu  0.37281192  0.13857000  0.60171624     0.42000
Cu842      Cu  0.33435752  0.10086618  0.65267842     0.43900
N843        N  0.37741861  0.05531406  0.65904253    -0.34800
N844        N  0.35304724  0.06494213  0.66765273    -0.29100
C845        C  0.34424812  0.04898010  0.68816347    -0.05200
C846        C  0.36433747  0.02870316  0.69292775     0.07000
C847        C  0.38510345  0.03336317  0.67421206     0.00800
H848        H  0.32507413  0.05239938  0.69924013     0.08500
H849        H  0.40422831  0.02147775  0.67159535     0.07600
N850        N  0.32218380  0.13941611  0.63750634    -0.36300
N851        N  0.33637102  0.15332754  0.61912013    -0.28400
C852        C  0.32283839  0.17734917  0.61352092    -0.03700
C853        C  0.29913762  0.17877484  0.62939795     0.04900
C854        C  0.29926331  0.15424507  0.64414067     0.03000
H855        H  0.32926693  0.19198938  0.59822786     0.08100
H856        H  0.28370342  0.14756303  0.65850783     0.07000
O857        O  0.97154430  0.58198606  0.71710322    -0.73100
O858        O  0.02906294  0.57963108  0.77623837    -0.74100
O859        O  0.97008227  0.58051848  0.77434935    -0.62700
O860        O  0.03051816  0.58053087  0.71916368    -0.71100
O861        O  0.03168028  0.62711625  0.72011171    -0.70700
O862        O  0.97020355  0.62711490  0.77501718    -0.61900
O863        O  0.03006218  0.62619588  0.77655398    -0.74400
O864        O  0.97193084  0.62853734  0.71825147    -0.73200
Cu865      Cu  0.00023233  0.57905687  0.74667646     1.04600
Cu866      Cu  0.00096576  0.62889247  0.74752605     1.04300
C867        C  0.96283851  0.60560214  0.70827201     0.93100
C868        C  0.03870436  0.60266607  0.78556448     0.92200
C869        C  0.96078011  0.60368593  0.78354545     0.84400
C870        C  0.04064160  0.60373462  0.71097863     0.90700
O871        O  0.02878652  0.30328904  0.77868047    -0.73100
O872        O  0.97054602  0.30511872  0.72071426    -0.74100
O873        O  0.03036323  0.30446256  0.72215533    -0.62700
O874        O  0.96907797  0.30400085  0.77707271    -0.71100
O875        O  0.97003019  0.35059156  0.77814834    -0.70700
O876        O  0.03042937  0.35106520  0.72276255    -0.61900
O877        O  0.97145673  0.35170395  0.72112618    -0.74400
O878        O  0.02898650  0.34986170  0.77984855    -0.73200
Cu879      Cu  0.99969443  0.30257020  0.74961046     1.04600
Cu880      Cu  0.00025405  0.35242919  0.75049897     1.04300
C881        C  0.03786126  0.32628434  0.78854266     0.93100
C882        C  0.96189031  0.32867286  0.71178611     0.92200
C883        C  0.03986149  0.32787485  0.71370405     0.84400
C884        C  0.96006381  0.32729118  0.78632084     0.90700
O885        O  0.16186260  0.49618220  0.52716532    -0.73100
O886        O  0.16047805  0.43415950  0.97241292    -0.74100
O887        O  0.16089416  0.49427863  0.97070173    -0.62700
O888        O  0.16146786  0.43607487  0.52902571    -0.71100
O889        O  0.11495319  0.43662856  0.52992904    -0.70700
O890        O  0.11436487  0.49416074  0.97107368    -0.61900
O891        O  0.11394853  0.43492387  0.97277178    -0.74400
O892        O  0.11533054  0.49585932  0.52811967    -0.73200
Cu893      Cu  0.16282602  0.46513984  0.99979828     1.04600
Cu894      Cu  0.11304790  0.46539434  0.00049783     1.04300
C895        C  0.13871078  0.50568879  0.53626595     0.93100
C896        C  0.13697017  0.42494219  0.96387938     0.92200
C897        C  0.13751484  0.50340511  0.96177266     0.84400
C898        C  0.13830063  0.42727482  0.53870170     0.90700
N899        N  0.09663227  0.61363236  0.83177778    -0.27400
N900        N  0.08652317  0.58975103  0.84114276    -0.35300
C901        C  0.06441406  0.58201020  0.82608302     0.00900
C902        C  0.06018135  0.60224894  0.80667314     0.06900
C903        C  0.08088018  0.62202549  0.81096103    -0.06200
H904        H  0.05215337  0.56322158  0.82922484     0.07600
H905        H  0.08468435  0.64077389  0.79935182     0.08800
Cu906      Cu  0.10308147  0.56916467  0.87436820     0.44200
Cu907      Cu  0.13246152  0.63290780  0.84651235     0.42000
Cu908      Cu  0.16773400  0.59734734  0.90109010     0.43900
N909        N  0.12417315  0.55202453  0.90702490    -0.34800
N910        N  0.14849107  0.56157402  0.91587295    -0.29100
C911        C  0.15722573  0.54539371  0.93626802    -0.05200
C912        C  0.13722656  0.52497714  0.94078354     0.07000
C913        C  0.11649687  0.52986083  0.92199997     0.00800
H914        H  0.17631869  0.54876982  0.94748294     0.08500
H915        H  0.09738154  0.51801505  0.91924786     0.07600
N916        N  0.18176023  0.63452858  0.88426515    -0.36300
N917        N  0.16912436  0.64728953  0.86414950    -0.28400
C918        C  0.18379367  0.67035954  0.85761093    -0.03700
C919        C  0.20657660  0.67244923  0.87463673     0.04900
C920        C  0.20464003  0.64929239  0.89122565     0.03000
H921        H  0.17818244  0.68466082  0.84171312     0.08100
H922        H  0.21910710  0.64320882  0.90682148     0.07000
N923        N  0.09275309  0.31208289  0.83718975    -0.27400
N924        N  0.08447571  0.33720694  0.84520042    -0.35300
C925        C  0.06382595  0.34620066  0.82901680     0.00900
C926        C  0.05863443  0.32558210  0.81019634     0.06900
C927        C  0.07722868  0.30420003  0.81601968    -0.06200
H928        H  0.05322168  0.36616078  0.83096988     0.07600
H929        H  0.07979641  0.28467272  0.80524920     0.08800
Cu930      Cu  0.10146771  0.35809126  0.87789111     0.44200
Cu931      Cu  0.12636079  0.29077240  0.85393554     0.42000
Cu932      Cu  0.16614142  0.33020682  0.90345050     0.43900
N933        N  0.12287012  0.37549792  0.91006020    -0.34800
N934        N  0.14736081  0.36608154  0.91854728    -0.29100
C935        C  0.15634196  0.38237687  0.93879446    -0.05200
C936        C  0.13630458  0.40273837  0.94351200     0.07000
C937        C  0.11532497  0.39771057  0.92504065     0.00800
H938        H  0.17567520  0.37920206  0.94967696     0.08500
H939        H  0.09618698  0.40956588  0.92241728     0.07600
N940        N  0.17814535  0.29142618  0.88856757    -0.36300
N941        N  0.16332131  0.27668247  0.87119120    -0.28400
C942        C  0.17682238  0.25250386  0.86601017    -0.03700
C943        C  0.20120864  0.25196474  0.88096675     0.04900
C944        C  0.20150062  0.27708634  0.89479576     0.03000
H945        H  0.16990037  0.23707131  0.85159993     0.08100
H946        H  0.21758366  0.28445972  0.90832752     0.07000
N947        N  0.15102031  0.37094906  0.58634486    -0.27400
N948        N  0.12639394  0.38006166  0.59480807    -0.35300
C949        C  0.11797625  0.40136889  0.57909182     0.00900
C950        C  0.13851637  0.40614639  0.56011388     0.06900
C951        C  0.15918930  0.38656188  0.56535025    -0.06200
H952        H  0.09848909  0.41270734  0.58147486     0.07600
H953        H  0.17841994  0.38340859  0.55429730     0.08800
Cu954      Cu  0.10577394  0.36309255  0.62757374     0.44200
Cu955      Cu  0.17127839  0.33630312  0.60251299     0.42000
Cu956      Cu  0.13330936  0.29733249  0.65310029     0.43900
N957        N  0.08879114  0.34145159  0.65971036    -0.34800
N958        N  0.09790767  0.31675550  0.66802631    -0.29100
C959        C  0.08167580  0.30789675  0.68829430    -0.05200
C960        C  0.06174657  0.32824812  0.69322037     0.07000
C961        C  0.06687631  0.34925823  0.67487220     0.00800
H962        H  0.08465348  0.28845902  0.69907146     0.08500
H963        H  0.05530199  0.36860705  0.67245585     0.07600
N964        N  0.17127415  0.28465562  0.63733029    -0.36300
N965        N  0.18536903  0.29894541  0.61913883    -0.28400
C966        C  0.20914651  0.28503796  0.61337149    -0.03700
C967        C  0.20986291  0.26071304  0.62844859     0.04900
C968        C  0.18567752  0.26138084  0.64367276     0.03000
H969        H  0.22463794  0.29196458  0.59904357     0.08100
H970        H  0.17924724  0.24658095  0.65881499     0.07000
N971        N  0.09921428  0.61510797  0.66616409    -0.27400
N972        N  0.09003629  0.59064682  0.65729527    -0.35300
C973        C  0.06793304  0.58269184  0.67209736     0.00900
C974        C  0.06278763  0.60340747  0.69080073     0.06900
C975        C  0.08289629  0.62367287  0.68647933    -0.06200
H976        H  0.05615775  0.56355536  0.66909425     0.07600
H977        H  0.08577005  0.64298304  0.69752391     0.08800
Cu978      Cu  0.10690828  0.57007872  0.62457751     0.44200
Cu979      Cu  0.13402222  0.63527904  0.65109883     0.42000
Cu980      Cu  0.16920026  0.60076807  0.59592238     0.43900
N981        N  0.12677445  0.55439101  0.59094826    -0.34800
N982        N  0.15023790  0.56482298  0.58103582    -0.29100
C983        C  0.15836113  0.54900239  0.56010483    -0.05200
C984        C  0.13877180  0.52795200  0.55652796     0.07000
C985        C  0.11898794  0.53208703  0.57628201     0.00800
H986        H  0.17684887  0.55283824  0.54814190     0.08500
H987        H  0.10058818  0.51945903  0.58008517     0.07600
N988        N  0.18293374  0.63780516  0.61336385    -0.36300
N989        N  0.17010172  0.65033770  0.63350133    -0.28400
C990        C  0.18447025  0.67348179  0.64036147    -0.03700
C991        C  0.20741148  0.67584039  0.62354962     0.04900
C992        C  0.20578166  0.65273040  0.60679241     0.03000
H993        H  0.17889994  0.68708473  0.65683978     0.08100
H994        H  0.22013609  0.64713526  0.59092608     0.07000
O995        O  0.88669885  0.43617459  0.96960586    -0.73100
O996        O  0.88541766  0.49664048  0.52540635    -0.74100
O997        O  0.88672641  0.43765620  0.52663994    -0.62700
O998        O  0.88545354  0.49523809  0.96801819    -0.71100
O999        O  0.83892444  0.49493206  0.96844478    -0.70700
O1000       O  0.84019851  0.43643849  0.52633940    -0.61900
O1001       O  0.83887499  0.49616911  0.52528140    -0.74400
O1002       O  0.84015210  0.43515682  0.96997911    -0.73200
Cu1003     Cu  0.88769710  0.46651887  0.49740817     1.04600
Cu1004     Cu  0.83789978  0.46568683  0.49749629     1.04300
C1005       C  0.86356095  0.42609493  0.96112207     0.93100
C1006       C  0.86202221  0.50561128  0.53441134     0.92200
C1007       C  0.86364919  0.42791311  0.53560816     0.84400
C1008       C  0.86203624  0.50397737  0.95885953     0.90700
N1009       N  0.90138330  0.31615278  0.83120508    -0.27400
N1010       N  0.91145856  0.34003363  0.84062152    -0.35300
C1011       C  0.93373889  0.34768873  0.82595784     0.00900
C1012       C  0.93812170  0.32741737  0.80670297     0.06900
C1013       C  0.91737858  0.30764628  0.81059897    -0.06200
H1014       H  0.94606179  0.36640512  0.82934266     0.07600
H1015       H  0.91377102  0.28884098  0.79897382     0.08800
Cu1016     Cu  0.89540383  0.36074838  0.87347920     0.44200
Cu1017     Cu  0.86553446  0.29712152  0.84583613     0.42000
Cu1018     Cu  0.83080725  0.33341173  0.90015315     0.43900
N1019       N  0.87562554  0.37725948  0.90664862    -0.34800
N1020       N  0.85131930  0.36799784  0.91570796    -0.29100
C1021       C  0.84330705  0.38396657  0.93649831    -0.05200
C1022       C  0.86378236  0.40390664  0.94089721     0.07000
C1023       C  0.88404746  0.39902061  0.92174921     0.00800
H1024       H  0.82416615  0.38105956  0.94774209     0.08500
H1025       H  0.90312197  0.41081400  0.91857257     0.07600
N1026       N  0.81593551  0.29680088  0.88303104    -0.36300
N1027       N  0.82862002  0.28347286  0.86326319    -0.28400
C1028       C  0.81403757  0.26017349  0.85731201    -0.03700
C1029       C  0.79093996  0.25891256  0.87398504     0.04900
C1030       C  0.79300879  0.28232126  0.89024421     0.03000
H1031       H  0.81991193  0.24515146  0.84208077     0.08100
H1032       H  0.77962349  0.28795149  0.90682559     0.07000
N1033       N  0.84936955  0.55933800  0.91022912    -0.27400
N1034       N  0.87412336  0.55020964  0.90208857    -0.35300
C1035       C  0.88240650  0.52908669  0.91809066     0.00900
C1036       C  0.86173214  0.52455257  0.93698821     0.06900
C1037       C  0.84103963  0.54395875  0.93132257    -0.06200
H1038       H  0.90200726  0.51785845  0.91610128     0.07600
H1039       H  0.82176324  0.54728556  0.94225484     0.08800
Cu1040     Cu  0.89556624  0.56733499  0.86984345     0.44200
Cu1041     Cu  0.82906626  0.59390275  0.89389892     0.42000
Cu1042     Cu  0.86699631  0.63298429  0.84423443     0.43900
N1043       N  0.91253518  0.58956864  0.83801994    -0.34800
N1044       N  0.90287402  0.61402617  0.82958835    -0.29100
C1045       C  0.91885399  0.62309469  0.80921684    -0.05200
C1046       C  0.93920831  0.60317269  0.80434531     0.07000
C1047       C  0.93461401  0.58218219  0.82286526     0.00800
H1048       H  0.91532970  0.64231518  0.79824402     0.08500
H1049       H  0.94653708  0.56303960  0.82526544     0.07600
N1050       N  0.82859218  0.64557669  0.85931101    -0.36300
N1051       N  0.81434101  0.63099740  0.87717135    -0.28400
C1052       C  0.79015872  0.64444290  0.88247078    -0.03700
C1053       C  0.78933067  0.66880883  0.86745266     0.04900
C1054       C  0.81393584  0.66867360  0.85279441     0.03000
H1055       H  0.77450628  0.63722939  0.89650493     0.08100
H1056       H  0.82051225  0.68383215  0.83801995     0.07000
N1057       N  0.84970556  0.56176666  0.58226021    -0.27400
N1058       N  0.87481636  0.55322146  0.58989677    -0.35300
C1059       C  0.88297212  0.53192829  0.57404910     0.00900
C1060       C  0.86185688  0.52669939  0.55579037     0.06900
C1061       C  0.84097282  0.54582500  0.56166544    -0.06200
H1062       H  0.90282819  0.52110367  0.57566755     0.07600
H1063       H  0.82138027  0.54867532  0.55112565     0.08800
Cu1064     Cu  0.89708242  0.57144715  0.62109294     0.44200
Cu1065     Cu  0.83030432  0.59690969  0.59801141     0.42000
Cu1066     Cu  0.87249642  0.63924394  0.64359856     0.43900
N1067       N  0.91555509  0.59375906  0.65215185    -0.34800
N1068       N  0.90750252  0.61915389  0.65957575    -0.29100
C1069       C  0.92357463  0.62763724  0.68020815    -0.05200
C1070       C  0.94223007  0.60632783  0.68634461     0.07000
C1071       C  0.93655465  0.58521341  0.66815241     0.00800
H1072       H  0.92104004  0.64732917  0.69070675     0.08500
H1073       H  0.94677917  0.56500458  0.66677686     0.07600
N1074       N  0.83354660  0.65142448  0.62867992    -0.36300
N1075       N  0.81813872  0.63569860  0.61260819    -0.28400
C1076       C  0.79418363  0.64926811  0.60691670    -0.03700
C1077       C  0.79416598  0.67467898  0.62035921     0.04900
C1078       C  0.81963687  0.67542923  0.63369886     0.03000
H1079       H  0.77857599  0.64144582  0.59317934     0.08100
H1080       H  0.82739233  0.69215048  0.64632311     0.07000
N1081       N  0.90430212  0.31814704  0.66540878    -0.27400
N1082       N  0.91495378  0.34165508  0.65578513    -0.35300
C1083       C  0.93702567  0.34920636  0.67093257     0.00900
C1084       C  0.94057852  0.32920787  0.69066508     0.06900
C1085       C  0.91956366  0.30979478  0.68653166    -0.06200
H1086       H  0.94973262  0.36766152  0.66761939     0.07600
H1087       H  0.91526479  0.29130133  0.69835482     0.08800
Cu1088     Cu  0.89892352  0.36196917  0.62229370     0.44200
Cu1089     Cu  0.86875936  0.29917732  0.65035716     0.42000
Cu1090     Cu  0.83308762  0.33470704  0.59648760     0.43900
N1091       N  0.87734624  0.37932272  0.59014710    -0.34800
N1092       N  0.85266092  0.37022234  0.58180441    -0.29100
C1093       C  0.84377650  0.38651355  0.56158842    -0.05200
C1094       C  0.86405647  0.40648875  0.55663683     0.07000
C1095       C  0.88509720  0.40131456  0.57500674     0.00800
H1096       H  0.82439876  0.38345326  0.55074370     0.08500
H1097       H  0.90449861  0.41279063  0.57733368     0.07600
N1098       N  0.81929175  0.29748886  0.61316979    -0.36300
N1099       N  0.83242493  0.28455088  0.63286113    -0.28400
C1100       C  0.81801410  0.26143427  0.63958912    -0.03700
C1101       C  0.79451852  0.25980350  0.62349051     0.04900
C1102       C  0.79615071  0.28289657  0.60677856     0.03000
H1103       H  0.82387074  0.24725391  0.65550473     0.08100
H1104       H  0.78166694  0.28874157  0.59111699     0.07000
C1105       C  0.26029888  0.24844341  0.63051179    -0.26500
C1106       C  0.23237533  0.23940115  0.62882573    -0.14500
C1107       C  0.22670099  0.21033008  0.62695869     0.36100
C1108       C  0.24886129  0.19115480  0.62714269    -0.25900
C1109       C  0.27675580  0.20017952  0.62893725    -0.15100
C1110       C  0.28246420  0.22921909  0.63084738     0.37200
N1111       N  0.31031828  0.23977096  0.63437891    -0.89400
H1112       H  0.26491006  0.27064435  0.63208702     0.18300
H1113       H  0.24424142  0.16895653  0.62552879     0.18300
N1114       N  0.19886438  0.19962719  0.62372529    -0.88400
H1115       H  0.32218315  0.23491265  0.61752471     0.35700
H1116       H  0.31923709  0.22998544  0.65105934     0.40800
H1117       H  0.18952468  0.20958926  0.60734611     0.40400
H1118       H  0.18729413  0.20397736  0.64087182     0.35300
C1119       C  0.77980397  0.21040566  0.63035546    -0.26500
C1120       C  0.77230127  0.23822819  0.62468412    -0.14500
C1121       C  0.74382681  0.24503852  0.62067857     0.36100
C1122       C  0.72357805  0.22374056  0.62187191    -0.25900
C1123       C  0.73107351  0.19585921  0.62729719    -0.15100
C1124       C  0.75956777  0.18906612  0.63142966     0.37200
N1125       N  0.76802485  0.16050122  0.63584499    -0.89400
H1126       H  0.80168061  0.20514974  0.63327405     0.18300
H1127       H  0.70171283  0.22904545  0.61898537     0.18300
N1128       N  0.73544437  0.27359250  0.61608057    -0.88400
H1129       H  0.78968852  0.15919004  0.63871086     0.35700
H1130       H  0.76356527  0.14921161  0.61842821     0.40800
H1131       H  0.74012896  0.28504575  0.63334633     0.40400
H1132       H  0.71376127  0.27496035  0.61339256     0.35300
C1133       C  0.77959721  0.20824167  0.87508510    -0.26500
C1134       C  0.77006626  0.23608547  0.87535016    -0.14500
C1135       C  0.74091726  0.24138629  0.87626222     0.36100
C1136       C  0.72215859  0.21891172  0.87723552    -0.25900
C1137       C  0.73168119  0.19107445  0.87699711    -0.15100
C1138       C  0.76082583  0.18575339  0.87605375     0.37200
N1139       N  0.77208170  0.15792384  0.87724564    -0.89400
H1140       H  0.80188892  0.20391124  0.87450916     0.18300
H1141       H  0.69986728  0.22325898  0.87774224     0.18300
N1142       N  0.72962965  0.26919377  0.87499835    -0.88400
H1143       H  0.76609878  0.14692797  0.86009444     0.35700
H1144       H  0.76392193  0.14783229  0.89402111     0.40800
H1145       H  0.73776572  0.27923746  0.85815142     0.40400
H1146       H  0.73557282  0.28022426  0.89210725     0.35300
C1147       C  0.24054257  0.18271776  0.88445591    -0.26500
C1148       C  0.26811223  0.19156224  0.87960445    -0.14500
C1149       C  0.27338141  0.22030873  0.87478811     0.36100
C1150       C  0.25122963  0.23950075  0.87551011    -0.25900
C1151       C  0.22368437  0.23067614  0.88040686    -0.15100
C1152       C  0.21835187  0.20191850  0.88500622     0.37200
N1153       N  0.19089042  0.19174954  0.89125536    -0.89400
H1154       H  0.23627222  0.16074258  0.88820133     0.18300
H1155       H  0.25549836  0.26146878  0.87171874     0.18300
N1156       N  0.30067739  0.23047878  0.86789931    -0.88400
H1157       H  0.17772046  0.19542676  0.87499242     0.35700
H1158       H  0.18331013  0.20283593  0.90779792     0.40800
H1159       H  0.30800492  0.21914832  0.85139863     0.40400
H1160       H  0.31419177  0.22729499  0.88398307     0.35300
C1161       C  0.25715451  0.68954974  0.61693735    -0.26500
C1162       C  0.22979227  0.69739534  0.62403430    -0.14500
C1163       C  0.22438233  0.72546939  0.63148694     0.36100
C1164       C  0.24652375  0.74483939  0.63208942    -0.25900
C1165       C  0.27388884  0.73701067  0.62498403    -0.15100
C1166       C  0.27930217  0.70892065  0.61753054     0.37200
N1167       N  0.30728339  0.69989917  0.61124044    -0.89400
H1168       H  0.26147160  0.66797657  0.61151430     0.18300
H1169       H  0.24217269  0.76641611  0.63746273     0.18300
N1170       N  0.19638129  0.73448930  0.63769099    -0.88400
H1171       H  0.30755635  0.67868086  0.60592782     0.35700
H1172       H  0.31928724  0.70175525  0.62863240     0.40800
H1173       H  0.18443193  0.73260156  0.62026582     0.40400
H1174       H  0.19608975  0.75571753  0.64295999     0.35300
C1175       C  0.78125408  0.72507141  0.61763516    -0.26500
C1176       C  0.77252271  0.69705490  0.61983160    -0.14500
C1177       C  0.74352580  0.69131513  0.62240402     0.36100
C1178       C  0.72423745  0.71343613  0.62248843    -0.25900
C1179       C  0.73294098  0.74144847  0.62022106    -0.15100
C1180       C  0.76193863  0.74720291  0.61765852     0.37200
N1181       N  0.77244539  0.77504797  0.61390205    -0.89400
H1182       H  0.80334939  0.72983577  0.61552968     0.18300
H1183       H  0.70215279  0.70864456  0.62462992     0.18300
N1184       N  0.73296248  0.66347633  0.62607590    -0.88400
H1185       H  0.76875093  0.78674547  0.63118952     0.35700
H1186       H  0.76195619  0.78424308  0.59781755     0.40800
H1187       H  0.74354427  0.65412440  0.64204849     0.40400
H1188       H  0.73640043  0.65189176  0.60869849     0.35300
C1189       C  0.23828541  0.70421848  0.84944098    -0.26500
C1190       C  0.22880560  0.69413733  0.87418534    -0.14500
C1191       C  0.24071118  0.70478759  0.89795355     0.36100
C1192       C  0.26209461  0.72497392  0.89640038    -0.25900
C1193       C  0.27158402  0.73506978  0.87165818    -0.15100
C1194       C  0.25973514  0.72434839  0.84788309     0.37200
N1195       N  0.26996839  0.73333171  0.82226491    -0.89400
H1196       H  0.22937912  0.69582939  0.83118782     0.18300
H1197       H  0.27094953  0.73337078  0.91467096     0.18300
N1198       N  0.23060062  0.69565696  0.92357042    -0.88400
H1199       H  0.25893650  0.72349393  0.80682318     0.35700
H1200       H  0.29077990  0.72667793  0.82063733     0.40800
H1201       H  0.20976694  0.70221408  0.92529077     0.40400
H1202       H  0.24164560  0.70547249  0.93901607     0.35300
C1203       C  0.74984445  0.73807984  0.87036017    -0.26500
C1204       C  0.72213093  0.72919599  0.86647724    -0.14500
C1205       C  0.71666537  0.70029428  0.86278339     0.36100
C1206       C  0.73888258  0.68105319  0.86323498    -0.25900
C1207       C  0.76663887  0.68999562  0.86695731    -0.15100
C1208       C  0.77203500  0.71890125  0.87077091     0.37200
N1209       N  0.79960481  0.72933291  0.87615853    -0.89400
H1210       H  0.75426922  0.76015007  0.87342269     0.18300
H1211       H  0.73448420  0.65897039  0.86022560     0.18300
N1212       N  0.68902645  0.69000055  0.85747880    -0.88400
H1213       H  0.81231079  0.72561957  0.85957416     0.35700
H1214       H  0.80776964  0.71857764  0.89262143     0.40800
H1215       H  0.68104853  0.70054153  0.84082201     0.40400
H1216       H  0.67629250  0.69430468  0.87394179     0.35300
loop_ 
_geom_bond_atom_site_label_1 
_geom_bond_atom_site_label_2 
_geom_bond_distance 
_geom_bond_site_symmetry_2 
_ccdc_geom_bond_type 
O1           Cu9   2.002   1_554  S
O1           C11   1.276       .  A
O2         Cu617   2.006       .  S
O2           C12   1.277       .  A
O3         Cu617   2.009       .  S
O3           C13   1.278       .  A
O4           Cu9   2.010   1_554  S
O4           C14   1.278       .  A
O5         Cu618   2.012   1_554  S
O5           C14   1.277       .  A
O6          Cu10   2.009       .  S
O6           C13   1.277       .  A
O7          Cu10   2.013       .  S
O7           C12   1.278       .  A
O8         Cu618   2.007   1_554  S
O8           C11   1.277       .  A
Cu9         O610   2.006       .  S
Cu9         O611   2.009       .  S
Cu9        Cu618   2.377       .  S
Cu10        O613   2.012       .  S
Cu10        O616   2.007       .  S
Cu10       Cu617   2.377       .  S
C11         C100   1.462       .  S
C12          C28   1.468       .  S
C13          C52   1.466       .  S
C14          C66   1.469       .  S
N15          N16   1.323       .  A
N15          C19   1.346       .  A
N15         Cu23   2.076       .  S
N16          C17   1.345       .  A
N16         Cu22   2.076       .  S
C17          C18   1.382       .  A
C17          H20   1.082       .  S
C18         C124   1.467       .  S
C18          C19   1.382       .  A
C19          H21   1.082       .  S
Cu22         N25   2.076       .  S
Cu23         N33   2.077       .  S
Cu24         N26   2.075       .  S
Cu24         N32   2.075       .  S
N25          N26   1.323       .  A
N25          C29   1.346       .  A
N26          C27   1.345       .  A
C27          C28   1.381       .  A
C27          H30   1.082       .  S
C28          C29   1.383       .  A
C29          H31   1.082       .  S
N32          N33   1.322       .  A
N32          C36   1.346       .  A
N33          C34   1.345       .  A
C34          C35   1.384       .  A
C34          H37   1.082       .  S
C35         C596   1.480       .  S
C35          C36   1.385       .  A
C36          H38   1.081       .  S
N39          N40   1.322       .  A
N39          C43   1.345       .  A
N39         Cu47   2.074       .  S
N40          C41   1.345       .  A
N40         Cu46   2.070       .  S
C41          C42   1.381       .  A
C41          H44   1.082       .  S
C42         C135   1.465       .  S
C42          C43   1.382       .  A
C43          H45   1.082       .  S
Cu46         N49   2.070       .  S
Cu47         N57   2.074       .  S
Cu48         N50   2.074       .  S
Cu48         N56   2.074       .  S
N49          N50   1.322       .  A
N49          C53   1.344       .  A
N50          C51   1.346       .  A
C51          C52   1.383       .  A
C51          H54   1.082       .  S
C52          C53   1.381       .  A
C53          H55   1.082       .  S
N56          N57   1.322       .  A
N56          C60   1.344       .  A
N57          C58   1.345       .  A
C58          C59   1.386       .  A
C58          H61   1.082       .  S
C59         C585   1.483       .  S
C59          C60   1.385       .  A
C60          H62   1.082       .  S
N63          N64   1.323       .  A
N63          C67   1.347       .  A
N63         Cu71   2.081       .  S
N64          C65   1.345       .  A
N64         Cu70   2.076       .  S
C65          C66   1.382       .  A
C65          H68   1.082       .  S
C66          C67   1.383       .  A
C67          H69   1.082       .  S
Cu70         N73   2.076       .  S
Cu71         N81   2.082       .  S
Cu72         N74   2.073       .  S
Cu72         N80   2.074       .  S
N73          N74   1.322       .  A
N73          C77   1.346       .  A
N74          C75   1.345       .  A
C75          C76   1.382       .  A
C75          H78   1.082       .  S
C76         C122   1.469       .  S
C76          C77   1.384       .  A
C77          H79   1.082       .  S
N80          N81   1.322       .  A
N80          C84   1.345       .  A
N81          C82   1.345       .  A
C82          C83   1.387       .  A
C82          H85   1.082       .  S
C83         C571   1.485       .  S
C83          C84   1.386       .  A
C84          H86   1.080       .  S
N87          N88   1.323       .  A
N87          C91   1.345       .  A
N87         Cu95   2.076       .  S
N88          C89   1.346       .  A
N88         Cu94   2.079       .  S
C89          C90   1.383       .  A
C89          H92   1.082       .  S
C90         C137   1.469       .  S
C90          C91   1.382       .  A
C91          H93   1.082       .  S
Cu94         N97   2.078       .  S
Cu95        N105   2.075       .  S
Cu96         N98   2.059       .  S
Cu96        N104   2.059       .  S
N97          N98   1.322       .  A
N97         C101   1.345       .  A
N98          C99   1.343       .  A
C99         C100   1.378       .  A
C99         H102   1.082       .  S
C100        C101   1.383       .  A
C101        H103   1.082       .  S
N104        N105   1.320       .  A
N104        C108   1.343       .  A
N105        C106   1.344       .  A
C106        C107   1.387       .  A
C106        H109   1.082       .  S
C107        C557   1.483       .  S
C107        C108   1.385       .  A
C108        H110   1.081       .  S
O111       Cu119   2.010       .  S
O111        C121   1.278   1_565  A
O112       Cu119   2.011       .  S
O112        C122   1.278       .  A
O113       Cu119   2.005       .  S
O113        C123   1.277   1_565  A
O114       Cu119   2.013       .  S
O114        C124   1.278       .  A
O115       Cu120   2.005       .  S
O115        C124   1.277       .  A
O116       Cu120   2.002       .  S
O116        C123   1.276   1_565  A
O117       Cu120   2.012       .  S
O117        C122   1.278       .  A
O118       Cu120   2.009       .  S
O118        C121   1.277   1_565  A
Cu119      Cu120   2.377       .  S
C121        C180   1.466       .  S
C123        C204   1.462       .  S
O125       Cu133   2.008       .  S
O125        C135   1.277       .  A
O126       Cu133   2.012       .  S
O126        C136   1.277   1_565  A
O127       Cu133   2.013       .  S
O127        C137   1.278       .  A
O128       Cu133   2.013       .  S
O128        C138   1.278   1_565  A
O129       Cu134   2.014       .  S
O129        C138   1.278   1_565  A
O130       Cu134   2.015       .  S
O130        C137   1.278       .  A
O131       Cu134   2.006       .  S
O131        C136   1.277   1_565  A
O132       Cu134   2.008       .  S
O132        C135   1.277       .  A
Cu133      Cu134   2.377       .  S
C136        C238   1.466       .  S
C138        C166   1.470       .  S
O139       Cu755   2.008       .  S
O139        C149   1.277       .  A
O140       Cu147   2.007       .  S
O140        C150   1.277       .  A
O141       Cu147   2.013       .  S
O141        C151   1.278       .  A
O142       Cu755   2.013       .  S
O142        C152   1.277       .  A
O143       Cu756   2.013       .  S
O143        C152   1.278       .  A
O144       Cu148   2.012       .  S
O144        C151   1.278       .  A
O145       Cu148   2.002       .  S
O145        C150   1.276       .  A
O146       Cu756   2.004       .  S
O146        C149   1.276       .  A
Cu147       O747   2.008       .  S
Cu147       O750   2.013       .  S
Cu147      Cu148   2.377       .  S
Cu148       O751   2.013       .  S
Cu148       O754   2.004       .  S
C149        C228   1.464       .  S
C150        C190   1.463       .  S
C151        C156   1.469       .  S
C152        C214   1.469       .  S
N153        N154   1.322       .  A
N153        C157   1.346       .  A
N153       Cu161   2.073       .  S
N154        C155   1.345       .  A
N154       Cu160   2.079       .  S
C155        C156   1.383       .  A
C155        H158   1.082       .  S
C156        C157   1.383       .  A
C157        H159   1.082       .  S
Cu160       N163   2.079       .  S
Cu161       N171   2.074       .  S
Cu162       N164   2.075       .  S
Cu162       N170   2.075       .  S
N163        N164   1.322       .  A
N163        C167   1.346       .  A
N164        C165   1.346       .  A
C165        C166   1.383       .  A
C165        H168   1.082       .  S
C166        C167   1.384       .  A
C167        H169   1.082       .  S
N170        N171   1.323       .  A
N170        C174   1.345       .  A
N171        C172   1.344       .  A
C172        C173   1.383       .  A
C172        H175   1.081       .  S
C173        C540   1.477       .  S
C173        C174   1.383       .  A
C174        H176   1.082       .  S
N177        N178   1.322       .  A
N177        C181   1.344       .  A
N177       Cu185   2.066       .  S
N178        C179   1.346       .  A
N178       Cu184   2.076       .  S
C179        C180   1.383       .  A
C179        H182   1.082       .  S
C180        C181   1.381       .  A
C181        H183   1.082       .  S
Cu184       N187   2.076       .  S
Cu185       N195   2.066       .  S
Cu186       N188   2.065       .  S
Cu186       N194   2.066       .  S
N187        N188   1.323       .  A
N187        C191   1.345       .  A
N188        C189   1.344       .  A
C189        C190   1.379       .  A
C189        H192   1.082       .  S
C190        C191   1.382       .  A
C191        H193   1.082       .  S
N194        N195   1.321       .  A
N194        C198   1.344       .  A
N195        C196   1.343       .  A
C196        C197   1.384       .  A
C196        H199   1.080       .  S
C197        C529   1.477       .  S
C197        C198   1.384       .  A
C198        H200   1.082       .  S
N201        N202   1.322       .  A
N201        C205   1.343       .  A
N201       Cu209   2.062       .  S
N202        C203   1.344       .  A
N202       Cu208   2.071       .  S
C203        C204   1.381       .  A
C203        H206   1.082       .  S
C204        C205   1.380       .  A
C205        H207   1.082       .  S
Cu208       N211   2.071       .  S
Cu209       N219   2.063       .  S
Cu210       N212   2.076       .  S
Cu210       N218   2.076       .  S
N211        N212   1.322       .  A
N211        C215   1.345       .  A
N212        C213   1.346       .  A
C213        C214   1.384       .  A
C213        H216   1.082       .  S
C214        C215   1.382       .  A
C215        H217   1.082       .  S
N218        N219   1.322       .  A
N218        C222   1.343       .  A
N219        C220   1.343       .  A
C220        C221   1.384       .  A
C220        H223   1.082       .  S
C221        C515   1.480       .  S
C221        C222   1.385       .  A
C222        H224   1.082       .  S
N225        N226   1.323       .  A
N225        C229   1.344       .  A
N225       Cu233   2.067       .  S
N226        C227   1.345       .  A
N226       Cu232   2.074       .  S
C227        C228   1.382       .  A
C227        H230   1.082       .  S
C228        C229   1.380       .  A
C229        H231   1.082       .  S
Cu232       N235   2.073       .  S
Cu233       N243   2.068       .  S
Cu234       N236   2.072       .  S
Cu234       N242   2.072       .  S
N235        N236   1.322       .  A
N235        C239   1.344       .  A
N236        C237   1.346       .  A
C237        C238   1.382       .  A
C237        H240   1.082       .  S
C238        C239   1.382       .  A
C239        H241   1.082       .  S
N242        N243   1.322       .  A
N242        C246   1.344       .  A
N243        C244   1.344       .  A
C244        C245   1.384       .  A
C244        H247   1.081       .  S
C245        C501   1.477       .  S
C245        C246   1.384       .  A
C246        H248   1.082       .  S
O249       Cu257   2.021   1_655  S
O249        C259   1.279       .  A
O250       Cu257   2.020       .  S
O250        C260   1.279       .  A
O251       Cu257   1.998   1_655  S
O251        C261   1.276       .  A
O252       Cu257   1.997       .  S
O252        C262   1.275       .  A
O253       Cu258   2.009       .  S
O253        C262   1.278       .  A
O254       Cu258   2.014   1_655  S
O254        C261   1.278       .  A
O255       Cu258   2.014       .  S
O255        C260   1.278       .  A
O256       Cu258   2.016   1_655  S
O256        C259   1.278       .  A
Cu257      Cu258   2.377       .  S
C259        C462   1.474       .  S
C260        C294   1.472       .  S
C261        C438   1.464       .  S
C262        C366   1.462       .  S
O263       Cu271   2.011   1_455  S
O263        C273   1.278       .  A
O264       Cu271   2.010       .  S
O264        C274   1.278       .  A
O265       Cu271   2.010   1_455  S
O265        C275   1.278       .  A
O266       Cu271   2.007       .  S
O266        C276   1.277       .  A
O267       Cu272   2.001   1_655  S
O267        C276   1.276       .  A
O268       Cu272   2.001       .  S
O268        C275   1.276       .  A
O269       Cu272   2.012   1_655  S
O269        C274   1.277       .  A
O270       Cu272   2.013       .  S
O270        C273   1.278       .  A
Cu271      Cu272   2.378   1_655  S
C273        C318   1.469       .  S
C274        C476   1.467       .  S
C275        C352   1.463       .  S
C276        C404   1.462       .  S
O277       Cu893   2.015   1_554  S
O277        C287   1.278       .  A
O278       Cu285   2.017       .  S
O278        C288   1.278       .  A
O279       Cu285   2.016       .  S
O279        C289   1.278       .  A
O280       Cu893   2.017   1_554  S
O280        C290   1.278       .  A
O281       Cu894   2.016       .  S
O281        C290   1.278       .  A
O282       Cu286   2.014       .  S
O282        C289   1.278       .  A
O283       Cu286   2.008       .  S
O283        C288   1.277       .  A
O284       Cu894   2.007       .  S
O284        C287   1.277       .  A
Cu285       O885   2.015       .  S
Cu285       O888   2.017       .  S
Cu285      Cu286   2.376       .  S
Cu286       O889   2.016       .  S
Cu286       O892   2.007       .  S
C287        C376   1.467       .  S
C288        C328   1.469       .  S
C289        C304   1.471       .  S
C290        C342   1.472       .  S
N291        N292   1.323       .  A
N291        C295   1.346       .  A
N291       Cu299   2.076       .  S
N292        C293   1.348       .  A
N292       Cu298   2.087       .  S
C293        C294   1.385       .  A
C293        H296   1.082       .  S
C294        C295   1.382       .  A
C295        H297   1.082       .  S
Cu298       N301   2.086       .  S
Cu299       N309   2.076       .  S
Cu300       N302   2.075       .  S
Cu300       N308   2.075       .  S
N301        N302   1.323       .  A
N301        C305   1.347       .  A
N302        C303   1.346       .  A
C303        C304   1.382       .  A
C303        H306   1.082       .  S
C304        C305   1.384       .  A
C305        H307   1.082       .  S
N308        N309   1.322       .  A
N308        C312   1.345       .  A
N309        C310   1.345       .  A
C310        C311   1.385       .  A
C310        H313   1.082       .  S
C311        C582   1.482       .  S
C311        C312   1.385       .  A
C312        H314   1.082       .  S
N315        N316   1.323       .  A
N315        C319   1.346       .  A
N315       Cu323   2.075       .  S
N316        C317   1.346       .  A
N316       Cu322   2.079       .  S
C317        C318   1.383       .  A
C317        H320   1.082       .  S
C318        C319   1.383       .  A
C319        H321   1.082       .  S
Cu322       N325   2.078       .  S
Cu323       N333   2.076       .  S
Cu324       N326   2.072       .  S
Cu324       N332   2.073       .  S
N325        N326   1.322       .  A
N325        C329   1.346       .  A
N326        C327   1.346       .  A
C327        C328   1.382       .  A
C327        H330   1.082       .  S
C328        C329   1.383       .  A
C329        H331   1.082       .  S
N332        N333   1.323       .  A
N332        C336   1.344       .  A
N333        C334   1.345       .  A
C334        C335   1.384       .  A
C334        H337   1.081       .  S
C335        C543   1.477       .  S
C335        C336   1.383       .  A
C336        H338   1.082       .  S
N339        N340   1.322       .  A
N339        C343   1.346       .  A
N339       Cu347   2.078       .  S
N340        C341   1.347       .  A
N340       Cu346   2.077       .  S
C341        C342   1.384       .  A
C341        H344   1.082       .  S
C342        C343   1.383       .  A
C343        H345   1.082       .  S
Cu346       N349   2.077       .  S
Cu347       N357   2.078       .  S
Cu348       N350   2.066       .  S
Cu348       N356   2.066       .  S
N349        N350   1.323       .  A
N349        C353   1.344       .  A
N350        C351   1.345       .  A
C351        C352   1.380       .  A
C351        H354   1.082       .  S
C352        C353   1.382       .  A
C353        H355   1.082       .  S
N356        N357   1.322       .  A
N356        C360   1.343       .  A
N357        C358   1.345       .  A
C358        C359   1.385       .  A
C358        H361   1.082       .  S
C359        C498   1.479       .  S
C359        C360   1.383       .  A
C360        H362   1.081       .  S
N363        N364   1.322       .  A
N363        C367   1.344       .  A
N363       Cu371   2.063       .  S
N364        C365   1.344       .  A
N364       Cu370   2.070       .  S
C365        C366   1.382       .  A
C365        H368   1.082       .  S
C366        C367   1.379       .  A
C367        H369   1.082       .  S
Cu370       N373   2.070       .  S
Cu371       N381   2.064       .  S
Cu372       N374   2.076       .  S
Cu372       N380   2.075       .  S
N373        N374   1.322       .  A
N373        C377   1.344       .  A
N374        C375   1.347       .  A
C375        C376   1.383       .  A
C375        H378   1.082       .  S
C376        C377   1.381       .  A
C377        H379   1.082       .  S
N380        N381   1.321       .  A
N380        C384   1.343       .  A
N381        C382   1.344       .  A
C382        C383   1.385       .  A
C382        H385   1.081       .  S
C383        C554   1.483       .  S
C383        C384   1.386       .  A
C384        H386   1.082       .  S
O387      Cu1003   2.006       .  S
O387        C397   1.277       .  A
O388       Cu395   2.008   1_554  S
O388        C398   1.277       .  A
O389       Cu395   2.010   1_554  S
O389        C399   1.277       .  A
O390      Cu1003   2.013       .  S
O390        C400   1.278       .  A
O391      Cu1004   2.016       .  S
O391        C400   1.278       .  A
O392       Cu396   2.011   1_554  S
O392        C399   1.278       .  A
O393       Cu396   2.010   1_554  S
O393        C398   1.277       .  A
O394      Cu1004   2.005       .  S
O394        C397   1.277       .  A
Cu395       O995   2.006       .  S
Cu395       O998   2.013       .  S
Cu395      Cu396   2.377       .  S
Cu396       O999   2.016       .  S
Cu396      O1002   2.005       .  S
C397        C414   1.463       .  S
C398        C452   1.467       .  S
C399        C486   1.467       .  S
C400        C428   1.471       .  S
N401        N402   1.322       .  A
N401        C405   1.345       .  A
N401       Cu409   2.071       .  S
N402        C403   1.343       .  A
N402       Cu408   2.064       .  S
C403        C404   1.380       .  A
C403        H406   1.082       .  S
C404        C405   1.381       .  A
C405        H407   1.082       .  S
Cu408       N411   2.064       .  S
Cu409       N419   2.071       .  S
Cu410       N412   2.069       .  S
Cu410       N418   2.069       .  S
N411        N412   1.322       .  A
N411        C415   1.344       .  A
N412        C413   1.344       .  A
C413        C414   1.381       .  A
C413        H416   1.082       .  S
C414        C415   1.381       .  A
C415        H417   1.082       .  S
N418        N419   1.322       .  A
N418        C422   1.344       .  A
N419        C420   1.344       .  A
C420        C421   1.384       .  A
C420        H423   1.082       .  S
C421        C526   1.477       .  S
C421        C422   1.384       .  A
C422        H424   1.081       .  S
N425        N426   1.323       .  A
N425        C429   1.346       .  A
N425       Cu433   2.079       .  S
N426        C427   1.347       .  A
N426       Cu432   2.079       .  S
C427        C428   1.384       .  A
C427        H430   1.082       .  S
C428        C429   1.383       .  A
C429        H431   1.082       .  S
Cu432       N435   2.078       .  S
Cu433       N443   2.080       .  S
Cu434       N436   2.069       .  S
Cu434       N442   2.070       .  S
N435        N436   1.323       .  A
N435        C439   1.345       .  A
N436        C437   1.345       .  A
C437        C438   1.380       .  A
C437        H440   1.082       .  S
C438        C439   1.382       .  A
C439        H441   1.082       .  S
N442        N443   1.322       .  A
N442        C446   1.345       .  A
N443        C444   1.346       .  A
C444        C445   1.385       .  A
C444        H447   1.082       .  S
C445        C599   1.481       .  S
C445        C446   1.385       .  A
C446        H448   1.081       .  S
N449        N450   1.322       .  A
N449        C453   1.346       .  A
N449       Cu457   2.069       .  S
N450        C451   1.345       .  A
N450       Cu456   2.078       .  S
C451        C452   1.383       .  A
C451        H454   1.082       .  S
C452        C453   1.382       .  A
C453        H455   1.082       .  S
Cu456       N459   2.078       .  S
Cu457       N467   2.070       .  S
Cu458       N460   2.085       .  S
Cu458       N466   2.086       .  S
N459        N460   1.323       .  A
N459        C463   1.346       .  A
N460        C461   1.348       .  A
C461        C462   1.385       .  A
C461        H464   1.082       .  S
C462        C463   1.383       .  A
C463        H465   1.082       .  S
N466        N467   1.322       .  A
N466        C470   1.346       .  A
N467        C468   1.344       .  A
C468        C469   1.385       .  A
C468        H471   1.080       .  S
C469        C568   1.485       .  S
C469        C470   1.387       .  A
C470        H472   1.082       .  S
N473        N474   1.322       .  A
N473        C477   1.344       .  A
N473       Cu481   2.064       .  S
N474        C475   1.347       .  A
N474       Cu480   2.082       .  S
C475        C476   1.384       .  A
C475        H478   1.082       .  S
C476        C477   1.380       .  A
C477        H479   1.082       .  S
Cu480       N483   2.082       .  S
Cu481       N491   2.064       .  S
Cu482       N484   2.070       .  S
Cu482       N490   2.070       .  S
N483        N484   1.323       .  A
N483        C487   1.346       .  A
N484        C485   1.345       .  A
C485        C486   1.381       .  A
C485        H488   1.082       .  S
C486        C487   1.384       .  A
C487        H489   1.082       .  S
N490        N491   1.321       .  A
N490        C494   1.344       .  A
N491        C492   1.343       .  A
C492        C493   1.383       .  A
C492        H495   1.082       .  S
C493        C512   1.479       .  S
C493        C494   1.386       .  A
C494        H496   1.082       .  S
C497        C498   1.403       .  A
C497        C502   1.399       .  A
C497        H504   1.084       .  S
C498        C499   1.415       .  A
C499        C500   1.398       .  A
C499        N506   1.432       .  S
C500        C501   1.402       .  A
C500        H505   1.084       .  S
C501        C502   1.414       .  A
C502        N503   1.432       .  S
N503        H507   1.042       .  S
N503        H508   1.047       .  S
N506        H509   1.047       .  S
N506        H510   1.041       .  S
C511        C512   1.403       .  A
C511        C516   1.404       .  A
C511        H518   1.084       .  S
C512        C513   1.411       .  A
C513        C514   1.403       .  A
C513        N520   1.438       .  S
C514        C515   1.403       .  A
C514        H519   1.083       .  S
C515        C516   1.413       .  A
C516        N517   1.438       .  S
N517        H521   1.046       .  S
N517        H522   1.046       .  S
N520        H523   1.046       .  S
N520        H524   1.046       .  S
C525        C526   1.403       .  A
C525        C530   1.398       .  A
C525        H532   1.084       .  S
C526        C527   1.415       .  A
C527        C528   1.398       .  A
C527        N534   1.432       .  S
C528        C529   1.403       .  A
C528        H533   1.084       .  S
C529        C530   1.415       .  A
C530        N531   1.433       .  S
N531        H535   1.045       .  S
N531        H536   1.043       .  S
N534        H537   1.045       .  S
N534        H538   1.043       .  S
C539        C540   1.403       .  A
C539        C544   1.400       .  A
C539        H546   1.084       .  S
C540        C541   1.415       .  A
C541        C542   1.398       .  A
C541        N548   1.432       .  S
C542        C543   1.402       .  A
C542        H547   1.084       .  S
C543        C544   1.414       .  A
C544        N545   1.432       .  S
N545        H549   1.043       .  S
N545        H550   1.046       .  S
N548        H551   1.046       .  S
N548        H552   1.042       .  S
C553        C554   1.404       .  A
C553        C558   1.404       .  A
C553        H560   1.083       .  S
C554        C555   1.413       .  A
C555        C556   1.404       .  A
C555        N562   1.437       .  S
C556        C557   1.404       .  A
C556        H561   1.083       .  S
C557        C558   1.413       .  A
C558        N559   1.438       .  S
N559        H563   1.046       .  S
N559        H564   1.045       .  S
N562        H565   1.046       .  S
N562        H566   1.046       .  S
C567        C568   1.404       .  A
C567        C572   1.401       .  A
C567        H574   1.084       .  S
C568        C569   1.417       .  A
C569        C570   1.400       .  A
C569        N576   1.432       .  S
C570        C571   1.404       .  A
C570        H575   1.084       .  S
C571        C572   1.417       .  A
C572        N573   1.432       .  S
N573        H577   1.044       .  S
N573        H578   1.045       .  S
N576        H579   1.046       .  S
N576        H580   1.042       .  S
C581        C582   1.404       .  A
C581        C586   1.406       .  A
C581        H588   1.083       .  S
C582        C583   1.412       .  A
C583        C584   1.405       .  A
C583        N590   1.438       .  S
C584        C585   1.404       .  A
C584        H589   1.083       .  S
C585        C586   1.412       .  A
C586        N587   1.438       .  S
N587        H591   1.046       .  S
N587        H592   1.046       .  S
N590        H593   1.046       .  S
N590        H594   1.046       .  S
C595        C596   1.402       .  A
C595        C600   1.399       .  A
C595        H602   1.084       .  S
C596        C597   1.414       .  A
C597        C598   1.402       .  A
C597        N604   1.432       .  S
C598        C599   1.404       .  A
C598        H603   1.084       .  S
C599        C600   1.415       .  A
C600        N601   1.432       .  S
N601        H605   1.043       .  S
N601        H606   1.046       .  S
N604        H607   1.045       .  S
N604        H608   1.044       .  S
O609       Cu617   2.002       .  S
O609        C619   1.276       .  A
O610        C620   1.277       .  A
O611        C621   1.278       .  A
O612       Cu617   2.010       .  S
O612        C622   1.278       .  A
O613        C622   1.277       .  A
O614       Cu618   2.009       .  S
O614        C621   1.277       .  A
O615       Cu618   2.013       .  S
O615        C620   1.278       .  A
O616        C619   1.277       .  A
C619        C708   1.462       .  S
C620        C636   1.468       .  S
C621        C660   1.466       .  S
C622        C674   1.469       .  S
N623        N624   1.323       .  A
N623        C627   1.346       .  A
N623       Cu631   2.076       .  S
N624        C625   1.345       .  A
N624       Cu630   2.076       .  S
C625        C626   1.382       .  A
C625        H628   1.082       .  S
C626        C732   1.467       .  S
C626        C627   1.382       .  A
C627        H629   1.082       .  S
Cu630       N633   2.076       .  S
Cu631       N641   2.077       .  S
Cu632       N634   2.075       .  S
Cu632       N640   2.075       .  S
N633        N634   1.323       .  A
N633        C637   1.346       .  A
N634        C635   1.345       .  A
C635        C636   1.381       .  A
C635        H638   1.082       .  S
C636        C637   1.383       .  A
C637        H639   1.082       .  S
N640        N641   1.322       .  A
N640        C644   1.346       .  A
N641        C642   1.345       .  A
C642        C643   1.384       .  A
C642        H645   1.082       .  S
C643       C1204   1.480       .  S
C643        C644   1.385       .  A
C644        H646   1.081       .  S
N647        N648   1.322       .  A
N647        C651   1.345       .  A
N647       Cu655   2.074       .  S
N648        C649   1.345       .  A
N648       Cu654   2.070       .  S
C649        C650   1.381       .  A
C649        H652   1.082       .  S
C650        C743   1.465       .  S
C650        C651   1.382       .  A
C651        H653   1.082       .  S
Cu654       N657   2.070       .  S
Cu655       N665   2.074       .  S
Cu656       N658   2.074       .  S
Cu656       N664   2.074       .  S
N657        N658   1.322       .  A
N657        C661   1.344       .  A
N658        C659   1.346       .  A
C659        C660   1.383       .  A
C659        H662   1.082       .  S
C660        C661   1.381       .  A
C661        H663   1.082       .  S
N664        N665   1.322       .  A
N664        C668   1.344       .  A
N665        C666   1.345       .  A
C666        C667   1.386       .  A
C666        H669   1.082       .  S
C667       C1193   1.483       .  S
C667        C668   1.385       .  A
C668        H670   1.082       .  S
N671        N672   1.323       .  A
N671        C675   1.347       .  A
N671       Cu679   2.081       .  S
N672        C673   1.345       .  A
N672       Cu678   2.076       .  S
C673        C674   1.382       .  A
C673        H676   1.082       .  S
C674        C675   1.383       .  A
C675        H677   1.082       .  S
Cu678       N681   2.076       .  S
Cu679       N689   2.082       .  S
Cu680       N682   2.073       .  S
Cu680       N688   2.074       .  S
N681        N682   1.322       .  A
N681        C685   1.346       .  A
N682        C683   1.345       .  A
C683        C684   1.382       .  A
C683        H686   1.082       .  S
C684        C730   1.469       .  S
C684        C685   1.384       .  A
C685        H687   1.082       .  S
N688        N689   1.322       .  A
N688        C692   1.345       .  A
N689        C690   1.345       .  A
C690        C691   1.387       .  A
C690        H693   1.082       .  S
C691       C1179   1.485       .  S
C691        C692   1.386       .  A
C692        H694   1.080       .  S
N695        N696   1.323       .  A
N695        C699   1.345       .  A
N695       Cu703   2.076       .  S
N696        C697   1.346       .  A
N696       Cu702   2.079       .  S
C697        C698   1.383       .  A
C697        H700   1.082       .  S
C698        C745   1.469       .  S
C698        C699   1.382       .  A
C699        H701   1.082       .  S
Cu702       N705   2.078       .  S
Cu703       N713   2.075       .  S
Cu704       N706   2.059       .  S
Cu704       N712   2.059       .  S
N705        N706   1.322       .  A
N705        C709   1.345       .  A
N706        C707   1.343       .  A
C707        C708   1.378       .  A
C707        H710   1.082       .  S
C708        C709   1.383       .  A
C709        H711   1.082       .  S
N712        N713   1.320       .  A
N712        C716   1.343       .  A
N713        C714   1.344       .  A
C714        C715   1.387       .  A
C714        H717   1.082       .  S
C715       C1165   1.483       .  S
C715        C716   1.385       .  A
C716        H718   1.081       .  S
O719       Cu727   2.010       .  S
O719        C729   1.278   1_565  A
O720       Cu727   2.011       .  S
O720        C730   1.278       .  A
O721       Cu727   2.005       .  S
O721        C731   1.277   1_565  A
O722       Cu727   2.013       .  S
O722        C732   1.278       .  A
O723       Cu728   2.005       .  S
O723        C732   1.277       .  A
O724       Cu728   2.002       .  S
O724        C731   1.276   1_565  A
O725       Cu728   2.012       .  S
O725        C730   1.278       .  A
O726       Cu728   2.009       .  S
O726        C729   1.277   1_565  A
Cu727      Cu728   2.377       .  S
C729        C788   1.466       .  S
C731        C812   1.462       .  S
O733       Cu741   2.008       .  S
O733        C743   1.277       .  A
O734       Cu741   2.012       .  S
O734        C744   1.277   1_565  A
O735       Cu741   2.013       .  S
O735        C745   1.278       .  A
O736       Cu741   2.013       .  S
O736        C746   1.278   1_565  A
O737       Cu742   2.014       .  S
O737        C746   1.278   1_565  A
O738       Cu742   2.015       .  S
O738        C745   1.278       .  A
O739       Cu742   2.006       .  S
O739        C744   1.277   1_565  A
O740       Cu742   2.008       .  S
O740        C743   1.277       .  A
Cu741      Cu742   2.377       .  S
C744        C846   1.466       .  S
C746        C774   1.470       .  S
O747        C757   1.277       .  A
O748       Cu755   2.007   1_556  S
O748        C758   1.277       .  A
O749       Cu755   2.013   1_556  S
O749        C759   1.278       .  A
O750        C760   1.277       .  A
O751        C760   1.278       .  A
O752       Cu756   2.012   1_556  S
O752        C759   1.278       .  A
O753       Cu756   2.002   1_556  S
O753        C758   1.276       .  A
O754        C757   1.276       .  A
Cu755      Cu756   2.377       .  S
C757        C836   1.464       .  S
C758        C798   1.463       .  S
C759        C764   1.469       .  S
C760        C822   1.469       .  S
N761        N762   1.322       .  A
N761        C765   1.346       .  A
N761       Cu769   2.073       .  S
N762        C763   1.345       .  A
N762       Cu768   2.079       .  S
C763        C764   1.383       .  A
C763        H766   1.082       .  S
C764        C765   1.383       .  A
C765        H767   1.082       .  S
Cu768       N771   2.079       .  S
Cu769       N779   2.074       .  S
Cu770       N772   2.075       .  S
Cu770       N778   2.075       .  S
N771        N772   1.322       .  A
N771        C775   1.346       .  A
N772        C773   1.346       .  A
C773        C774   1.383       .  A
C773        H776   1.082       .  S
C774        C775   1.384       .  A
C775        H777   1.082       .  S
N778        N779   1.323       .  A
N778        C782   1.345       .  A
N779        C780   1.344       .  A
C780        C781   1.383       .  A
C780        H783   1.081       .  S
C781       C1148   1.477       .  S
C781        C782   1.383       .  A
C782        H784   1.082       .  S
N785        N786   1.322       .  A
N785        C789   1.344       .  A
N785       Cu793   2.066       .  S
N786        C787   1.346       .  A
N786       Cu792   2.076       .  S
C787        C788   1.383       .  A
C787        H790   1.082       .  S
C788        C789   1.381       .  A
C789        H791   1.082       .  S
Cu792       N795   2.076       .  S
Cu793       N803   2.066       .  S
Cu794       N796   2.065       .  S
Cu794       N802   2.066       .  S
N795        N796   1.323       .  A
N795        C799   1.345       .  A
N796        C797   1.344       .  A
C797        C798   1.379       .  A
C797        H800   1.082       .  S
C798        C799   1.382       .  A
C799        H801   1.082       .  S
N802        N803   1.321       .  A
N802        C806   1.344       .  A
N803        C804   1.343       .  A
C804        C805   1.384       .  A
C804        H807   1.080       .  S
C805       C1137   1.477       .  S
C805        C806   1.384       .  A
C806        H808   1.082       .  S
N809        N810   1.322       .  A
N809        C813   1.343       .  A
N809       Cu817   2.062       .  S
N810        C811   1.344       .  A
N810       Cu816   2.071       .  S
C811        C812   1.381       .  A
C811        H814   1.082       .  S
C812        C813   1.380       .  A
C813        H815   1.082       .  S
Cu816       N819   2.071       .  S
Cu817       N827   2.063       .  S
Cu818       N820   2.076       .  S
Cu818       N826   2.076       .  S
N819        N820   1.322       .  A
N819        C823   1.345       .  A
N820        C821   1.346       .  A
C821        C822   1.384       .  A
C821        H824   1.082       .  S
C822        C823   1.382       .  A
C823        H825   1.082       .  S
N826        N827   1.322       .  A
N826        C830   1.343       .  A
N827        C828   1.343       .  A
C828        C829   1.384       .  A
C828        H831   1.082       .  S
C829       C1123   1.480       .  S
C829        C830   1.385       .  A
C830        H832   1.082       .  S
N833        N834   1.323       .  A
N833        C837   1.344       .  A
N833       Cu841   2.067       .  S
N834        C835   1.345       .  A
N834       Cu840   2.074       .  S
C835        C836   1.382       .  A
C835        H838   1.082       .  S
C836        C837   1.380       .  A
C837        H839   1.082       .  S
Cu840       N843   2.073       .  S
Cu841       N851   2.068       .  S
Cu842       N844   2.072       .  S
Cu842       N850   2.072       .  S
N843        N844   1.322       .  A
N843        C847   1.344       .  A
N844        C845   1.346       .  A
C845        C846   1.382       .  A
C845        H848   1.082       .  S
C846        C847   1.382       .  A
C847        H849   1.082       .  S
N850        N851   1.322       .  A
N850        C854   1.344       .  A
N851        C852   1.344       .  A
C852        C853   1.384       .  A
C852        H855   1.081       .  S
C853       C1109   1.477       .  S
C853        C854   1.384       .  A
C854        H856   1.082       .  S
O857       Cu865   2.021   1_655  S
O857        C867   1.279       .  A
O858       Cu865   2.020       .  S
O858        C868   1.279       .  A
O859       Cu865   1.998   1_655  S
O859        C869   1.276       .  A
O860       Cu865   1.997       .  S
O860        C870   1.275       .  A
O861       Cu866   2.009       .  S
O861        C870   1.278       .  A
O862       Cu866   2.014   1_655  S
O862        C869   1.278       .  A
O863       Cu866   2.014       .  S
O863        C868   1.278       .  A
O864       Cu866   2.016   1_655  S
O864        C867   1.278       .  A
Cu865      Cu866   2.377       .  S
C867       C1070   1.474       .  S
C868        C902   1.472       .  S
C869       C1046   1.464       .  S
C870        C974   1.462       .  S
O871       Cu879   2.011   1_455  S
O871        C881   1.278       .  A
O872       Cu879   2.010       .  S
O872        C882   1.278       .  A
O873       Cu879   2.010   1_455  S
O873        C883   1.278       .  A
O874       Cu879   2.007       .  S
O874        C884   1.277       .  A
O875       Cu880   2.001   1_655  S
O875        C884   1.276       .  A
O876       Cu880   2.001       .  S
O876        C883   1.276       .  A
O877       Cu880   2.012   1_655  S
O877        C882   1.277       .  A
O878       Cu880   2.013       .  S
O878        C881   1.278       .  A
Cu879      Cu880   2.378   1_655  S
C881        C926   1.469       .  S
C882       C1084   1.467       .  S
C883        C960   1.463       .  S
C884       C1012   1.462       .  S
O885        C895   1.278       .  A
O886       Cu893   2.017       .  S
O886        C896   1.278       .  A
O887       Cu893   2.016       .  S
O887        C897   1.278       .  A
O888        C898   1.278       .  A
O889        C898   1.278       .  A
O890       Cu894   2.014   1_556  S
O890        C897   1.278       .  A
O891       Cu894   2.008   1_556  S
O891        C896   1.277       .  A
O892        C895   1.277       .  A
Cu893      Cu894   2.376   1_556  S
C895        C984   1.467       .  S
C896        C936   1.469       .  S
C897        C912   1.471       .  S
C898        C950   1.472       .  S
N899        N900   1.323       .  A
N899        C903   1.346       .  A
N899       Cu907   2.076       .  S
N900        C901   1.348       .  A
N900       Cu906   2.087       .  S
C901        C902   1.385       .  A
C901        H904   1.082       .  S
C902        C903   1.382       .  A
C903        H905   1.082       .  S
Cu906       N909   2.086       .  S
Cu907       N917   2.076       .  S
Cu908       N910   2.075       .  S
Cu908       N916   2.075       .  S
N909        N910   1.323       .  A
N909        C913   1.347       .  A
N910        C911   1.346       .  A
C911        C912   1.382       .  A
C911        H914   1.082       .  S
C912        C913   1.384       .  A
C913        H915   1.082       .  S
N916        N917   1.322       .  A
N916        C920   1.345       .  A
N917        C918   1.345       .  A
C918        C919   1.385       .  A
C918        H921   1.082       .  S
C919       C1190   1.482       .  S
C919        C920   1.385       .  A
C920        H922   1.082       .  S
N923        N924   1.323       .  A
N923        C927   1.346       .  A
N923       Cu931   2.075       .  S
N924        C925   1.346       .  A
N924       Cu930   2.079       .  S
C925        C926   1.383       .  A
C925        H928   1.082       .  S
C926        C927   1.383       .  A
C927        H929   1.082       .  S
Cu930       N933   2.078       .  S
Cu931       N941   2.076       .  S
Cu932       N934   2.072       .  S
Cu932       N940   2.073       .  S
N933        N934   1.322       .  A
N933        C937   1.346       .  A
N934        C935   1.346       .  A
C935        C936   1.382       .  A
C935        H938   1.082       .  S
C936        C937   1.383       .  A
C937        H939   1.082       .  S
N940        N941   1.323       .  A
N940        C944   1.344       .  A
N941        C942   1.345       .  A
C942        C943   1.384       .  A
C942        H945   1.081       .  S
C943       C1151   1.477       .  S
C943        C944   1.383       .  A
C944        H946   1.082       .  S
N947        N948   1.322       .  A
N947        C951   1.346       .  A
N947       Cu955   2.078       .  S
N948        C949   1.347       .  A
N948       Cu954   2.077       .  S
C949        C950   1.384       .  A
C949        H952   1.082       .  S
C950        C951   1.383       .  A
C951        H953   1.082       .  S
Cu954       N957   2.077       .  S
Cu955       N965   2.078       .  S
Cu956       N958   2.066       .  S
Cu956       N964   2.066       .  S
N957        N958   1.323       .  A
N957        C961   1.344       .  A
N958        C959   1.345       .  A
C959        C960   1.380       .  A
C959        H962   1.082       .  S
C960        C961   1.382       .  A
C961        H963   1.082       .  S
N964        N965   1.322       .  A
N964        C968   1.343       .  A
N965        C966   1.345       .  A
C966        C967   1.385       .  A
C966        H969   1.082       .  S
C967       C1106   1.479       .  S
C967        C968   1.383       .  A
C968        H970   1.081       .  S
N971        N972   1.322       .  A
N971        C975   1.344       .  A
N971       Cu979   2.063       .  S
N972        C973   1.344       .  A
N972       Cu978   2.070       .  S
C973        C974   1.382       .  A
C973        H976   1.082       .  S
C974        C975   1.379       .  A
C975        H977   1.082       .  S
Cu978       N981   2.070       .  S
Cu979       N989   2.064       .  S
Cu980       N982   2.076       .  S
Cu980       N988   2.075       .  S
N981        N982   1.322       .  A
N981        C985   1.344       .  A
N982        C983   1.347       .  A
C983        C984   1.383       .  A
C983        H986   1.082       .  S
C984        C985   1.381       .  A
C985        H987   1.082       .  S
N988        N989   1.321       .  A
N988        C992   1.343       .  A
N989        C990   1.344       .  A
C990        C991   1.385       .  A
C990        H993   1.081       .  S
C991       C1162   1.483       .  S
C991        C992   1.386       .  A
C992        H994   1.082       .  S
O995       C1005   1.277       .  A
O996      Cu1003   2.008       .  S
O996       C1006   1.277       .  A
O997      Cu1003   2.010       .  S
O997       C1007   1.277       .  A
O998       C1008   1.278       .  A
O999       C1008   1.278       .  A
O1000     Cu1004   2.011       .  S
O1000      C1007   1.278       .  A
O1001     Cu1004   2.010       .  S
O1001      C1006   1.277       .  A
O1002      C1005   1.277       .  A
Cu1003    Cu1004   2.377       .  S
C1005      C1022   1.463       .  S
C1006      C1060   1.467       .  S
C1007      C1094   1.467       .  S
C1008      C1036   1.471       .  S
N1009      N1010   1.322       .  A
N1009      C1013   1.345       .  A
N1009     Cu1017   2.071       .  S
N1010      C1011   1.343       .  A
N1010     Cu1016   2.064       .  S
C1011      C1012   1.380       .  A
C1011      H1014   1.082       .  S
C1012      C1013   1.381       .  A
C1013      H1015   1.082       .  S
Cu1016     N1019   2.064       .  S
Cu1017     N1027   2.071       .  S
Cu1018     N1020   2.069       .  S
Cu1018     N1026   2.069       .  S
N1019      N1020   1.322       .  A
N1019      C1023   1.344       .  A
N1020      C1021   1.344       .  A
C1021      C1022   1.381       .  A
C1021      H1024   1.082       .  S
C1022      C1023   1.381       .  A
C1023      H1025   1.082       .  S
N1026      N1027   1.322       .  A
N1026      C1030   1.344       .  A
N1027      C1028   1.344       .  A
C1028      C1029   1.384       .  A
C1028      H1031   1.082       .  S
C1029      C1134   1.477       .  S
C1029      C1030   1.384       .  A
C1030      H1032   1.081       .  S
N1033      N1034   1.323       .  A
N1033      C1037   1.346       .  A
N1033     Cu1041   2.079       .  S
N1034      C1035   1.347       .  A
N1034     Cu1040   2.079       .  S
C1035      C1036   1.384       .  A
C1035      H1038   1.082       .  S
C1036      C1037   1.383       .  A
C1037      H1039   1.082       .  S
Cu1040     N1043   2.078       .  S
Cu1041     N1051   2.080       .  S
Cu1042     N1044   2.069       .  S
Cu1042     N1050   2.070       .  S
N1043      N1044   1.323       .  A
N1043      C1047   1.345       .  A
N1044      C1045   1.345       .  A
C1045      C1046   1.380       .  A
C1045      H1048   1.082       .  S
C1046      C1047   1.382       .  A
C1047      H1049   1.082       .  S
N1050      N1051   1.322       .  A
N1050      C1054   1.345       .  A
N1051      C1052   1.346       .  A
C1052      C1053   1.385       .  A
C1052      H1055   1.082       .  S
C1053      C1207   1.481       .  S
C1053      C1054   1.385       .  A
C1054      H1056   1.081       .  S
N1057      N1058   1.322       .  A
N1057      C1061   1.346       .  A
N1057     Cu1065   2.069       .  S
N1058      C1059   1.345       .  A
N1058     Cu1064   2.078       .  S
C1059      C1060   1.383       .  A
C1059      H1062   1.082       .  S
C1060      C1061   1.382       .  A
C1061      H1063   1.082       .  S
Cu1064     N1067   2.078       .  S
Cu1065     N1075   2.070       .  S
Cu1066     N1068   2.085       .  S
Cu1066     N1074   2.086       .  S
N1067      N1068   1.323       .  A
N1067      C1071   1.346       .  A
N1068      C1069   1.348       .  A
C1069      C1070   1.385       .  A
C1069      H1072   1.082       .  S
C1070      C1071   1.383       .  A
C1071      H1073   1.082       .  S
N1074      N1075   1.322       .  A
N1074      C1078   1.346       .  A
N1075      C1076   1.344       .  A
C1076      C1077   1.385       .  A
C1076      H1079   1.080       .  S
C1077      C1176   1.485       .  S
C1077      C1078   1.387       .  A
C1078      H1080   1.082       .  S
N1081      N1082   1.322       .  A
N1081      C1085   1.344       .  A
N1081     Cu1089   2.064       .  S
N1082      C1083   1.347       .  A
N1082     Cu1088   2.082       .  S
C1083      C1084   1.384       .  A
C1083      H1086   1.082       .  S
C1084      C1085   1.380       .  A
C1085      H1087   1.082       .  S
Cu1088     N1091   2.082       .  S
Cu1089     N1099   2.064       .  S
Cu1090     N1092   2.070       .  S
Cu1090     N1098   2.070       .  S
N1091      N1092   1.323       .  A
N1091      C1095   1.346       .  A
N1092      C1093   1.345       .  A
C1093      C1094   1.381       .  A
C1093      H1096   1.082       .  S
C1094      C1095   1.384       .  A
C1095      H1097   1.082       .  S
N1098      N1099   1.321       .  A
N1098      C1102   1.344       .  A
N1099      C1100   1.343       .  A
C1100      C1101   1.383       .  A
C1100      H1103   1.082       .  S
C1101      C1120   1.479       .  S
C1101      C1102   1.386       .  A
C1102      H1104   1.082       .  S
C1105      C1106   1.403       .  A
C1105      C1110   1.399       .  A
C1105      H1112   1.084       .  S
C1106      C1107   1.415       .  A
C1107      C1108   1.398       .  A
C1107      N1114   1.432       .  S
C1108      C1109   1.402       .  A
C1108      H1113   1.084       .  S
C1109      C1110   1.414       .  A
C1110      N1111   1.432       .  S
N1111      H1115   1.042       .  S
N1111      H1116   1.047       .  S
N1114      H1117   1.047       .  S
N1114      H1118   1.041       .  S
C1119      C1120   1.403       .  A
C1119      C1124   1.404       .  A
C1119      H1126   1.084       .  S
C1120      C1121   1.411       .  A
C1121      C1122   1.403       .  A
C1121      N1128   1.438       .  S
C1122      C1123   1.403       .  A
C1122      H1127   1.083       .  S
C1123      C1124   1.413       .  A
C1124      N1125   1.438       .  S
N1125      H1129   1.046       .  S
N1125      H1130   1.046       .  S
N1128      H1131   1.046       .  S
N1128      H1132   1.046       .  S
C1133      C1134   1.403       .  A
C1133      C1138   1.398       .  A
C1133      H1140   1.084       .  S
C1134      C1135   1.415       .  A
C1135      C1136   1.398       .  A
C1135      N1142   1.432       .  S
C1136      C1137   1.403       .  A
C1136      H1141   1.084       .  S
C1137      C1138   1.415       .  A
C1138      N1139   1.433       .  S
N1139      H1143   1.045       .  S
N1139      H1144   1.044       .  S
N1142      H1145   1.045       .  S
N1142      H1146   1.043       .  S
C1147      C1148   1.403       .  A
C1147      C1152   1.400       .  A
C1147      H1154   1.084       .  S
C1148      C1149   1.415       .  A
C1149      C1150   1.398       .  A
C1149      N1156   1.432       .  S
C1150      C1151   1.402       .  A
C1150      H1155   1.084       .  S
C1151      C1152   1.414       .  A
C1152      N1153   1.432       .  S
N1153      H1157   1.043       .  S
N1153      H1158   1.046       .  S
N1156      H1159   1.046       .  S
N1156      H1160   1.042       .  S
C1161      C1162   1.404       .  A
C1161      C1166   1.404       .  A
C1161      H1168   1.083       .  S
C1162      C1163   1.413       .  A
C1163      C1164   1.404       .  A
C1163      N1170   1.437       .  S
C1164      C1165   1.404       .  A
C1164      H1169   1.083       .  S
C1165      C1166   1.413       .  A
C1166      N1167   1.438       .  S
N1167      H1171   1.046       .  S
N1167      H1172   1.045       .  S
N1170      H1173   1.046       .  S
N1170      H1174   1.046       .  S
C1175      C1176   1.404       .  A
C1175      C1180   1.401       .  A
C1175      H1182   1.084       .  S
C1176      C1177   1.417       .  A
C1177      C1178   1.400       .  A
C1177      N1184   1.432       .  S
C1178      C1179   1.404       .  A
C1178      H1183   1.084       .  S
C1179      C1180   1.417       .  A
C1180      N1181   1.432       .  S
N1181      H1185   1.044       .  S
N1181      H1186   1.045       .  S
N1184      H1187   1.046       .  S
N1184      H1188   1.042       .  S
C1189      C1190   1.404       .  A
C1189      C1194   1.406       .  A
C1189      H1196   1.083       .  S
C1190      C1191   1.412       .  A
C1191      C1192   1.405       .  A
C1191      N1198   1.438       .  S
C1192      C1193   1.404       .  A
C1192      H1197   1.083       .  S
C1193      C1194   1.412       .  A
C1194      N1195   1.438       .  S
N1195      H1199   1.046       .  S
N1195      H1200   1.046       .  S
N1198      H1201   1.046       .  S
N1198      H1202   1.046       .  S
C1203      C1204   1.402       .  A
C1203      C1208   1.399       .  A
C1203      H1210   1.084       .  S
C1204      C1205   1.414       .  A
C1205      C1206   1.402       .  A
C1205      N1212   1.432       .  S
C1206      C1207   1.404       .  A
C1206      H1211   1.084       .  S
C1207      C1208   1.415       .  A
C1208      N1209   1.432       .  S
N1209      H1213   1.043       .  S
N1209      H1214   1.046       .  S
N1212      H1215   1.045       .  S
N1212      H1216   1.044       .  S
