geometry optimzed in LAMMPS
_audit_creation_date              2020-11-30 
_audit_creation_method            'lammps2cif' 
_symmetry_space_group_name_H-M    'P1' 
_symmetry_Int_Tables_number       1 
_symmetry_cell_setting            triclinic 
loop_ 
_symmetry_equiv_pos_as_xyz 
  x,y,z 
_cell_length_a                    30.40590226 
_cell_length_b                    30.634186039988077 
_cell_length_c                    44.74621786430163 
_cell_angle_alpha                 90.20831328412031 
_cell_angle_beta                  90.01478786308914 
_cell_angle_gamma                 120.2535165367208 
loop_ 
_atom_site_label 
_atom_site_type_symbol 
_atom_site_fract_x 
_atom_site_fract_y 
_atom_site_fract_z 
_atom_site_charge 
O1          O  0.19642727  0.85216963  0.04569814    -0.86300
O2          O  0.11794154  0.76738564  0.06814083    -0.83400
C3          C  0.09445332  0.72317795  0.07816285     0.97100
O4          O  0.11265048  0.71120248  0.10014982    -0.83400
O5          O  0.17931345  0.69604050  0.06839555    -0.86000
C6          C  0.21908383  0.70046860  0.05726654     1.01700
O7          O  0.25828306  0.74451126  0.05529201    -0.78800
O8          O  0.23302018  0.81118604  0.02825202    -0.79000
C9          C  0.20934597  0.83450833  0.02381182     1.01600
O10         O  0.23528444  0.88161645  0.10714756    -0.86300
O11         O  0.15124938  0.80273718  0.13011252    -0.83400
C12         C  0.17131515  0.78950746  0.15047417     0.97200
O13         O  0.19433910  0.76634177  0.14374570    -0.83400
O14         O  0.25678427  0.73968932  0.11322507    -0.86000
C15         C  0.30109407  0.77825266  0.11154966     1.01600
O16         O  0.30559512  0.81877992  0.10213534    -0.78800
O17         O  0.29099865  0.88847516  0.07384633    -0.79000
C18         C  0.27942622  0.90583691  0.09653964     1.01600
Cr19       Cr  0.17741045  0.82370167  0.08766739     1.93700
Cr20       Cr  0.18714563  0.73255446  0.10547073     1.93200
Cr21       Cr  0.26783843  0.81430514  0.06586028     1.39100
O22         O  0.21070579  0.79020223  0.08621220    -1.24100
O23         O  0.19548648  0.84832130  0.29507673    -0.86300
O24         O  0.11262755  0.76899302  0.31646571    -0.83400
C25         C  0.08629627  0.72361344  0.32385361     0.97100
O26         O  0.10006072  0.70745198  0.34609514    -0.83400
O27         O  0.17570275  0.69356145  0.32321500    -0.86000
C28         C  0.21816461  0.69990736  0.31539835     1.01700
O29         O  0.25693340  0.74425549  0.31643536    -0.78800
O30         O  0.23667438  0.80867758  0.28418125    -0.79000
C31         C  0.20858358  0.82580523  0.27619229     1.01600
O32         O  0.22454708  0.88167463  0.35770518    -0.86300
O33         O  0.13864740  0.80536928  0.37851607    -0.83400
C34         C  0.15542003  0.79153664  0.40035736     0.97200
O35         O  0.17147063  0.76140753  0.39634725    -0.83400
O36         O  0.24005803  0.73726811  0.37391178    -0.86000
C37         C  0.28414500  0.77626531  0.37597745     1.01600
O38         O  0.29302914  0.81702808  0.36411661    -0.78800
O39         O  0.28685808  0.88819610  0.33055948    -0.79000
C40         C  0.27032966  0.90644420  0.35023728     1.01600
Cr41       Cr  0.17014357  0.82352214  0.33716431     1.93700
Cr42       Cr  0.17317415  0.72942911  0.35878486     1.93200
Cr43       Cr  0.26382110  0.81323564  0.32459921     1.39100
O44         O  0.20210477  0.78855762  0.34007952    -1.24100
O45         O  0.66755445  0.81549121  0.12101436    -0.86300
O46         O  0.65509117  0.88962913  0.14279861    -0.83400
C47         C  0.63376948  0.91279958  0.15225611     0.97100
O48         O  0.59691564  0.89152612  0.17045338    -0.83400
O49         O  0.52099704  0.81921845  0.13576767    -0.86000
C50         C  0.48938881  0.77810768  0.12374906     1.01700
O51         O  0.49581333  0.74023951  0.12544524    -0.78800
O52         O  0.59067655  0.76928965  0.10217021    -0.79000
C53         C  0.63758005  0.79890537  0.09858761     1.01600
O54         O  0.65671171  0.77838639  0.18343424    -0.86300
O55         O  0.65188706  0.85657584  0.20507230    -0.83400
C56         C  0.61582346  0.83630639  0.22399529     0.97200
O57         O  0.57026565  0.81327634  0.21522138    -0.83400
O58         O  0.48663269  0.74564245  0.18294413    -0.86000
C59         C  0.48460817  0.70321338  0.18455734     1.01600
O60         O  0.52171103  0.69967139  0.17557252    -0.78800
O61         O  0.61144309  0.71844009  0.15138614    -0.79000
C62         C  0.63961454  0.73397030  0.17454864     1.01600
Cr63       Cr  0.65302176  0.83220228  0.16270551     1.93700
Cr64       Cr  0.54688131  0.81617952  0.17510265     1.93200
Cr65       Cr  0.55761426  0.73643386  0.13977066     1.39100
O66         O  0.58605268  0.79504963  0.15914875    -1.24100
O67         O  0.64602141  0.80857979  0.36836112    -0.86300
O68         O  0.64564857  0.88802473  0.39321436    -0.83400
C69         C  0.62829642  0.91300726  0.40550365     0.97100
O70         O  0.60019867  0.89541050  0.42851247    -0.83400
O71         O  0.51075596  0.82285205  0.40300490    -0.86000
C72         C  0.47443550  0.78141206  0.39380430     1.01700
O73         O  0.47993425  0.74292524  0.39264241    -0.78800
O74         O  0.56428533  0.76569730  0.35855240    -0.79000
C75         C  0.60929963  0.79481669  0.35008349     1.01600
O76         O  0.65448322  0.77560372  0.42891531    -0.86300
O77         O  0.66117468  0.85841673  0.45379493    -0.83400
C78         C  0.63230209  0.83942483  0.47639417     0.97200
O79         O  0.58480957  0.81923692  0.47373420    -0.83400
O80         O  0.48986413  0.75299440  0.45017186    -0.86000
C81         C  0.48517470  0.70938131  0.44968047     1.01600
O82         O  0.51827923  0.70297521  0.43701351    -0.78800
O83         O  0.59577264  0.71441106  0.40171620    -0.79000
C84         C  0.63252485  0.73053515  0.42014543     1.01600
Cr85       Cr  0.64697366  0.83020263  0.41139345     1.93700
Cr86       Cr  0.54932660  0.82126078  0.43754984     1.93200
Cr87       Cr  0.54278796  0.73596234  0.39838571     1.39100
O88         O  0.57984780  0.79584617  0.41571576    -1.24100
O89         O  0.19059979  0.36244774  0.45872073    -0.86300
O90         O  0.23703152  0.35053504  0.50761456    -0.83400
C91         C  0.28129423  0.38000151  0.49784217     0.97100
O92         O  0.29904869  0.42223293  0.00233423    -0.83400
O93         O  0.30292483  0.51775266  0.50205595    -0.86000
C94         C  0.29870542  0.52651324  0.47513831     1.01700
O95         O  0.25701692  0.49991449  0.46113879    -0.78800
O96         O  0.16052595  0.41259366  0.45099607    -0.79000
C97         C  0.17804014  0.38604671  0.44086991     1.01600
O98         O  0.10895759  0.35535909  0.99622638    -0.86300
O99         O  0.16015020  0.35291016  0.04573491    -0.83400
C100        C  0.19495270  0.37021500  0.06516486     0.97200
O101        O  0.24071599  0.39900203  0.05737032    -0.83400
O102        O  0.24200523  0.49177062  0.05257674    -0.86000
C103        C  0.23125235  0.52273935  0.04034405     1.01600
O104        O  0.21989296  0.51914095  0.01314233    -0.78800
O105        O  0.12512969  0.43065827  0.50685732    -0.79000
C106        C  0.09561978  0.38469841  0.00766396     1.01600
Cr107      Cr  0.17575337  0.35874369  0.00241836     1.93700
Cr108      Cr  0.26764140  0.45426734  0.02732925     1.93200
Cr109      Cr  0.19097009  0.46261260  0.48409212     1.39100
O110        O  0.21226149  0.42565437  0.00502991    -1.24100
O111        O  0.19034195  0.35714018  0.21075106    -0.86300
O112        O  0.24487500  0.35377453  0.25767125    -0.83400
C113        C  0.28703371  0.38147594  0.24484075     0.97100
O114        O  0.30672024  0.42884331  0.24652254    -0.83400
O115        O  0.30961956  0.51941126  0.24361670    -0.86000
C116        C  0.29978531  0.52464294  0.21702319     1.01700
O117        O  0.25620080  0.49609669  0.20576371    -0.78800
O118        O  0.16140718  0.40793867  0.20026993    -0.79000
C119        C  0.17591433  0.37767045  0.19193689     1.01600
O120        O  0.11431853  0.35521895  0.25135386    -0.86300
O121        O  0.17599135  0.36296989  0.29778429    -0.83400
C122        C  0.21375590  0.38430108  0.31504074     0.97200
O123        O  0.25809038  0.41251228  0.30494988    -0.83400
O124        O  0.25445785  0.50152352  0.29675119    -0.86000
C125        C  0.23976113  0.52948104  0.28470252     1.01600
O126        O  0.22345768  0.52203472  0.25820505    -0.78800
O127        O  0.13251394  0.43340234  0.25735384    -0.79000
C128        C  0.10226447  0.38677945  0.26090329     1.01600
Cr129      Cr  0.18367787  0.36193980  0.25420195     1.93700
Cr130      Cr  0.27783804  0.46256637  0.27174448     1.93200
Cr131      Cr  0.19470178  0.46181163  0.23184953     1.39100
O132        O  0.21875043  0.42916227  0.25270637    -1.24100
O133        O  0.34709681  0.19801869  0.12468883    -0.86300
O134        O  0.35537937  0.12082427  0.14629328    -0.83400
C135        C  0.37487556  0.09706916  0.15750576     0.97100
O136        O  0.40423127  0.11529629  0.18008566    -0.83400
O137        O  0.48852043  0.18671752  0.15084910    -0.86000
C138        C  0.52376730  0.22805810  0.14119459     1.01700
O139        O  0.51690175  0.26578736  0.14008433    -0.78800
O140        O  0.42699144  0.24002945  0.11006759    -0.79000
C141        C  0.38022757  0.21481830  0.10414298     1.01600
O142        O  0.34703567  0.23081612  0.18541435    -0.86300
O143        O  0.34643722  0.14913983  0.20819585    -0.83400
C144        C  0.37755978  0.17201938  0.22941972     0.97200
O145        O  0.42468662  0.19421047  0.22485678    -0.83400
O146        O  0.51533141  0.26011349  0.19752381    -0.86000
C147        C  0.51859916  0.30312075  0.19703983     1.01600
O148        O  0.48203673  0.30628530  0.18672180    -0.78800
O149        O  0.39931911  0.29094583  0.15530768    -0.79000
C150        C  0.36486172  0.27468000  0.17525564     1.01600
Cr151      Cr  0.35356195  0.17694814  0.16625720     1.93700
Cr152      Cr  0.45526686  0.19014575  0.18732272     1.93200
Cr153      Cr  0.45371491  0.27150610  0.14896792     1.39100
O154        O  0.42070486  0.21282840  0.16735275    -1.24100
O155        O  0.34543623  0.19227281  0.46028798    -0.86300
O156        O  0.33637314  0.24034754  0.41256050    -0.83400
C157        C  0.36634803  0.28445414  0.42242276     0.97100
O158        O  0.41362504  0.30374589  0.41840167    -0.83400
O159        O  0.50490822  0.30715359  0.42147982    -0.86000
C160        C  0.51333442  0.30057203  0.44816105     1.01700
O161        O  0.48540996  0.25913197  0.46149016    -0.78800
O162        O  0.39753616  0.16499879  0.47126976    -0.79000
C163        C  0.36695181  0.17942447  0.47936810     1.01600
O164        O  0.34092726  0.11280130  0.42242795    -0.86300
O165        O  0.34297010  0.16663170  0.37367537    -0.83400
C166        C  0.36236906  0.20087799  0.35432529     0.97200
O167        O  0.39209707  0.24615781  0.36256329    -0.83400
O168        O  0.48374653  0.24550552  0.37074585    -0.86000
C169        C  0.51398086  0.23425033  0.38360601     1.01600
O170        O  0.50783928  0.22082537  0.41056404    -0.78800
O171        O  0.41900723  0.13052022  0.41451563    -0.79000
C172        C  0.37185677  0.09968817  0.41295854     1.01600
Cr173      Cr  0.34631623  0.18050209  0.41712911     1.93700
Cr174      Cr  0.44556338  0.27136631  0.39470788     1.93200
Cr175      Cr  0.44906333  0.19488625  0.43797803     1.39100
O176        O  0.41404217  0.21582647  0.41660130    -1.24100
O177        O  0.83045070  0.19171819  0.03410014    -0.86300
O178        O  0.89201466  0.23705929  0.08246987    -0.83400
C179        C  0.90722542  0.28256518  0.07578232     0.97100
O180        O  0.87978482  0.30141915  0.08187825    -0.83400
O181        O  0.79224485  0.30481318  0.07892736    -0.86000
C182        C  0.77591713  0.29866305  0.05234346     1.01700
O183        O  0.75920501  0.25671041  0.03873983    -0.78800
O184        O  0.74899359  0.16115405  0.02801362    -0.79000
C185        C  0.79270737  0.17695802  0.01690106     1.01600
O186        O  0.75692601  0.11145001  0.07266011    -0.86300
O187        O  0.81287849  0.16182317  0.12094733    -0.83400
C188        C  0.82576344  0.19344975  0.14190414     0.97200
O189        O  0.84177422  0.23964850  0.13641540    -0.83400
O190        O  0.75112838  0.24113262  0.12947237    -0.86000
C191        C  0.70985790  0.23193422  0.11708649     1.01600
O192        O  0.70142215  0.21948269  0.09005531    -0.78800
O193        O  0.69869034  0.12902723  0.08583167    -0.79000
C194        C  0.71594396  0.09927149  0.08641208     1.01600
Cr195      Cr  0.82113210  0.17816133  0.07782601     1.93700
Cr196      Cr  0.81486774  0.26755472  0.10507577     1.93200
Cr197      Cr  0.73145372  0.19253150  0.06191087     1.39100
O198        O  0.78947659  0.21343660  0.08155700    -1.24100
O199        O  0.80164072  0.15370281  0.28820617    -0.86300
O200        O  0.88011680  0.24129305  0.30870270    -0.83400
C201        C  0.90422622  0.28635814  0.31747559     0.97100
O202        O  0.88600215  0.30063526  0.33845488    -0.83400
O203        O  0.81643511  0.30895999  0.30489316    -0.86000
C204        C  0.77601778  0.30295224  0.29382180     1.01700
O205        O  0.73645648  0.25889219  0.29398430    -0.78800
O206        O  0.75970066  0.18865084  0.26982008    -0.79000
C207        C  0.78429210  0.16615824  0.26595722     1.01600
O208        O  0.76606120  0.12942345  0.35031501    -0.86300
O209        O  0.84680173  0.21144974  0.37167581    -0.83400
C210        C  0.82299569  0.22280646  0.39074292     0.97200
O211        O  0.80525288  0.25030078  0.38317062    -0.83400
O212        O  0.74042669  0.27117967  0.35156646    -0.86000
C213        C  0.69658075  0.23136195  0.35239601     1.01600
O214        O  0.69206780  0.19070133  0.34327025    -0.78800
O215        O  0.70594912  0.11750772  0.31896056    -0.79000
C216        C  0.72101583  0.10292287  0.34144847     1.01600
Cr217      Cr  0.82148330  0.18636325  0.32946435     1.93700
Cr218      Cr  0.81079421  0.27860502  0.34362484     1.93200
Cr219      Cr  0.72803916  0.19069754  0.30748340     1.39100
O220        O  0.78673664  0.21833414  0.32680843    -1.24100
O221        O  0.85858752  0.65488320  0.45945839    -0.86300
O222        O  0.77454864  0.65420746  0.47744874    -0.83400
C223        C  0.72836443  0.63532039  0.48388668     0.97100
O224        O  0.71236844  0.60415056  0.00344216    -0.83400
O225        O  0.69928245  0.52029150  0.47515088    -0.86000
C226        C  0.70292837  0.48305507  0.46723498     1.01700
O227        O  0.74625236  0.48640021  0.46919772    -0.78800
O228        O  0.81559448  0.57710448  0.44230634    -0.79000
C229        C  0.83843896  0.62396650  0.43776353     1.01600
O230        O  0.88261597  0.64834907  0.02124620    -0.86300
O231        O  0.80282671  0.65572462  0.03974467    -0.83400
C232        C  0.78341451  0.62190957  0.05982266     0.97200
O233        O  0.75797025  0.57598121  0.05263053    -0.83400
O234        O  0.73678861  0.48777847  0.02363952    -0.86000
C235        C  0.77562237  0.48227938  0.02551137     1.01600
O236        O  0.81786196  0.51724115  0.01649870    -0.78800
O237        O  0.88958833  0.59845359  0.49079745    -0.79000
C238        C  0.90806529  0.62939772  0.01168292     1.01600
Cr239      Cr  0.82573255  0.64794118  0.50013975     1.93700
Cr240      Cr  0.73149062  0.55027962  0.01255032     1.93200
Cr241      Cr  0.81539024  0.54732163  0.48103869     1.39100
O242        O  0.78990158  0.58141347  0.49859342    -1.24100
O243        O  0.80995023  0.65699490  0.20640046    -0.86300
O244        O  0.76351719  0.66284499  0.25708763    -0.83400
C245        C  0.71929479  0.63320146  0.24710372     0.97100
O246        O  0.70039912  0.58620041  0.24976113    -0.83400
O247        O  0.69644063  0.49678000  0.24345626    -0.86000
C248        C  0.70109465  0.49135897  0.21595872     1.01700
O249        O  0.74217399  0.52009924  0.20221720    -0.78800
O250        O  0.83807287  0.60669862  0.19331632    -0.79000
C251        C  0.82210179  0.63620316  0.18625300     1.01600
O252        O  0.89117235  0.65873060  0.24246722    -0.86300
O253        O  0.83903997  0.65513511  0.29317865    -0.83400
C254        C  0.80482074  0.63507649  0.31286105     0.97200
O255        O  0.75938054  0.60413605  0.30509156    -0.83400
O256        O  0.76105582  0.51470492  0.29269910    -0.86000
C257        C  0.77109385  0.48549226  0.27770904     1.01600
O258        O  0.78157134  0.49281793  0.25034564    -0.78800
O259        O  0.87259214  0.58043830  0.24794853    -0.79000
C260        C  0.90342772  0.62701723  0.25127277     1.01600
Cr261      Cr  0.82365255  0.65385219  0.24969141     1.93700
Cr262      Cr  0.73349010  0.55360700  0.27141236     1.93200
Cr263      Cr  0.80776398  0.55320825  0.22503766     1.39100
O264        O  0.78825130  0.58664095  0.24885370    -1.24100
C265        C  0.83654894  0.64096759  0.40712060    -0.07100
C266        C  0.78960933  0.63383040  0.39728595    -0.18200
C267        C  0.78017301  0.63727885  0.36703329     0.10100
C268        C  0.81760155  0.64544918  0.34539108    -0.07000
C269        C  0.86619131  0.65664933  0.35556469    -0.18300
C270        C  0.87598314  0.65474146  0.38626453     0.10100
S271        S  0.71921153  0.63018606  0.35769337    -0.33200
S272        S  0.93736303  0.66607885  0.39850566    -0.33200
H273        H  0.96284033  0.68722166  0.37150638     0.28100
H274        H  0.73839038  0.66522506  0.33415389     0.28100
H275        H  0.75922345  0.62362745  0.41328336     0.18700
H276        H  0.89545359  0.66351197  0.33939644     0.18700
C277        C  0.81258424  0.64158187  0.15439168    -0.07100
C278        C  0.76340406  0.60896581  0.14355807    -0.18200
C279        C  0.75202725  0.60550543  0.11307229     0.10100
C280        C  0.79090646  0.63460824  0.09226737    -0.07000
C281        C  0.83982521  0.66937885  0.10321505    -0.18300
C282        C  0.85099006  0.67326632  0.13405720     0.10100
S283        S  0.68736475  0.56129195  0.10199407    -0.33200
S284        S  0.91515691  0.71754525  0.14583792    -0.33200
H285        H  0.90415660  0.72089736  0.17596254     0.28100
H286        H  0.68706616  0.59025371  0.07772443     0.28100
H287        H  0.73384683  0.58428492  0.15891227     0.18700
H288        H  0.87019778  0.69156968  0.08760177     0.18700
C289        C  0.77369091  0.34949440  0.28756316    -0.07100
C290        C  0.72739711  0.34881759  0.29147154    -0.18200
C291        C  0.72563894  0.39384956  0.29223790     0.10100
C292        C  0.77115894  0.44102690  0.28997507    -0.07000
C293        C  0.81729814  0.44163237  0.28690400    -0.18300
C294        C  0.81895191  0.39705518  0.28454937     0.10100
S295        S  0.66398830  0.38864558  0.29397150    -0.33200
S296        S  0.87989208  0.40390128  0.27539800    -0.33200
H297        H  0.85880917  0.36247861  0.25561169     0.28100
H298        H  0.68080700  0.43470864  0.30904614     0.28100
H299        H  0.69240390  0.31311922  0.29441033     0.18700
H300        H  0.85205990  0.47737057  0.28325802     0.18700
C301        C  0.77504694  0.34207623  0.03901265    -0.07100
C302        C  0.72840146  0.34105118  0.03713751    -0.18200
C303        C  0.72652319  0.38587967  0.03436665     0.10100
C304        C  0.77248162  0.43327551  0.03335764    -0.07000
C305        C  0.81889364  0.43335107  0.03497755    -0.18300
C306        C  0.82057602  0.38883368  0.03730898     0.10100
S307        S  0.66443873  0.37957819  0.03276593    -0.33200
S308        S  0.88243641  0.39413038  0.03880406    -0.33200
H309        H  0.86650371  0.34558248  0.02728994     0.28100
H310        H  0.67538590  0.41551370  0.05550046     0.28100
H311        H  0.69319290  0.30539031  0.03968325     0.18700
H312        H  0.85485262  0.46857370  0.03389635     0.18700
C313        C  0.79866255  0.17858421  0.48354044    -0.07100
C314        C  0.76273126  0.18446057  0.46730785    -0.18200
C315        C  0.76849787  0.19498627  0.43697831     0.10100
C316        C  0.81319416  0.20338472  0.42193281    -0.07000
C317        C  0.84772564  0.19394087  0.43748363    -0.18300
C318        C  0.84008574  0.18023344  0.46794014     0.10100
S319        S  0.71548538  0.19474270  0.41888731    -0.33200
S320        S  0.88234411  0.16249327  0.48504071    -0.33200
H321        H  0.84686344  0.12951337  0.00371058     0.28100
H322        H  0.71672589  0.16679494  0.39424538     0.28100
H323        H  0.72960433  0.18142998  0.47838579     0.18700
H324        H  0.88071569  0.19743501  0.42601832     0.18700
C325        C  0.81652934  0.17530424  0.17314761    -0.07100
C326        C  0.76580035  0.14958439  0.18282953    -0.18200
C327        C  0.75375851  0.14000358  0.21316820     0.10100
C328        C  0.79317133  0.15641333  0.23460791    -0.07000
C329        C  0.84336098  0.17558719  0.22452180    -0.18300
C330        C  0.85560809  0.18609919  0.19402196     0.10100
S331        S  0.68740025  0.10870199  0.22341774    -0.33200
S332        S  0.92166054  0.21571232  0.18340911    -0.33200
H333        H  0.91302167  0.20038048  0.15329577     0.28100
H334        H  0.69336422  0.08929461  0.25060682     0.28100
H335        H  0.73538036  0.13934432  0.16678107     0.18700
H336        H  0.87375219  0.18667471  0.24067322     0.18700
C337        C  0.64915371  0.23219583  0.36043677    -0.07100
C338        C  0.65034968  0.27870379  0.36219228    -0.18200
C339        C  0.60568436  0.28091690  0.36667246     0.10100
C340        C  0.55807730  0.23576631  0.36872979    -0.07000
C341        C  0.55671540  0.18953650  0.36665040    -0.18300
C342        C  0.60111611  0.18686255  0.36316279     0.10100
S343        S  0.61240570  0.34232683  0.37202878    -0.33200
S344        S  0.59487859  0.12477656  0.36449059    -0.33200
H345        H  0.54161252  0.09593668  0.36724579     0.28100
H346        H  0.56442097  0.32930741  0.36036808     0.28100
H347        H  0.68632632  0.31371931  0.36014365     0.18700
H348        H  0.52057471  0.15514926  0.36995841     0.18700
C349        C  0.55959157  0.34216526  0.46149452    -0.07100
C350        C  0.60527235  0.34229558  0.45651235    -0.18200
C351        C  0.65249622  0.38744239  0.45652814     0.10100
C352        C  0.65462564  0.43399918  0.46231498    -0.07000
C353        C  0.60839663  0.43295951  0.46814533    -0.18300
C354        C  0.56153168  0.38802205  0.46787696     0.10100
S355        S  0.70763877  0.38283836  0.44728144    -0.33200
S356        S  0.50802657  0.39271674  0.97319395    -0.33200
H357        H  0.47789794  0.34212750  0.98219806     0.28100
H358        H  0.72711779  0.42361246  0.42720371     0.28100
H359        H  0.60377263  0.30743032  0.45002302     0.18700
H360        H  0.61106297  0.46930719  0.97177880     0.18700
C361        C  0.67022221  0.23772154  0.13209281    -0.07100
C362        C  0.66464672  0.27853191  0.12300037    -0.18200
C363        C  0.61782941  0.27713229  0.12542097     0.10100
C364        C  0.57495636  0.23319045  0.13680106    -0.07000
C365        C  0.58197087  0.19365062  0.14743898    -0.18300
C366        C  0.62889152  0.19560518  0.14522622     0.10100
S367        S  0.61354124  0.33055046  0.11221488    -0.33200
S368        S  0.63492576  0.14247781  0.15690921    -0.33200
H369        H  0.58708814  0.11532975  0.17079003     0.28100
H370        H  0.66590761  0.36317165  0.10734894     0.28100
H371        H  0.69625683  0.31004315  0.11183643     0.18700
H372        H  0.55032636  0.16038325  0.15719032     0.18700
C373        C  0.65833320  0.44658435  0.20234332    -0.07100
C374        C  0.66004645  0.40174728  0.20379300    -0.18200
C375        C  0.61538413  0.35436016  0.20442682     0.10100
C376        C  0.56727586  0.35121004  0.20259230    -0.07000
C377        C  0.56619400  0.39661640  0.20054845    -0.18300
C378        C  0.61076522  0.44364768  0.20029489     0.10100
S379        S  0.62305302  0.30023866  0.20912229    -0.33200
S380        S  0.60487289  0.49923601  0.19878302    -0.33200
H381        H  0.65170435  0.52844425  0.18426791     0.28100
H382        H  0.58787819  0.28044209  0.23275185     0.28100
H383        H  0.69637453  0.40382192  0.20718385     0.18700
H384        H  0.53021950  0.39577729  0.19883936     0.18700
C385        C  0.36059712  0.17632471  0.25961110    -0.07100
C386        C  0.33676232  0.13409889  0.27828004    -0.18200
C387        C  0.33242040  0.13981396  0.30926699     0.10100
C388        C  0.35283015  0.18919448  0.32167883    -0.07000
C389        C  0.37152415  0.23042759  0.30208886    -0.18300
C390        C  0.37612262  0.22465756  0.27149931     0.10100
S391        S  0.30301948  0.08388524  0.33229126    -0.33200
S392        S  0.40547772  0.28016789  0.24813926    -0.33200
H393        H  0.40654657  0.31464975  0.26938353     0.28100
H394        H  0.29393592  0.04842899  0.30957497     0.28100
H395        H  0.32452820  0.09710848  0.26885016     0.18700
H396        H  0.38576249  0.26810317  0.31098824     0.18700
C397        C  0.36178610  0.18632303  0.01109948    -0.07100
C398        C  0.37914757  0.23539614  0.02175535    -0.18200
C399        C  0.38112307  0.24514441  0.05232305     0.10100
C400        C  0.36515393  0.20495290  0.07267952    -0.07000
C401        C  0.34385869  0.15524948  0.06194839    -0.18300
C402        C  0.34181439  0.14555029  0.03123018     0.10100
S403        S  0.40703122  0.30991834  0.06410640    -0.33200
S404        S  0.31429782  0.08099079  0.01898159    -0.33200
H405        H  0.29428684  0.08680126  0.49247102     0.28100
H406        H  0.38040628  0.29864473  0.09131185     0.28100
H407        H  0.39363774  0.26670205  0.00622216     0.18700
H408        H  0.33148875  0.12426271  0.07755306     0.18700
C409        C  0.05207433  0.36849249  0.27568075    -0.07100
C410        C  0.00800854  0.34127822  0.25840880    -0.18200
C411        C  0.95942222  0.31942042  0.27122240     0.10100
C412        C  0.95387642  0.32083794  0.30264174    -0.07000
C413        C  0.99769790  0.35066690  0.31977089    -0.18300
C414        C  0.04650579  0.37524877  0.30665880     0.10100
S415        S  0.90627136  0.29275064  0.24572027    -0.33200
S416        S  0.09910331  0.41261612  0.33151406    -0.33200
H417        H  0.13943241  0.42642963  0.31166268     0.28100
H418        H  0.86992912  0.29175366  0.26536676     0.28100
H419        H  0.01144466  0.33757508  0.23453948     0.18700
H420        H  0.99415666  0.35320759  0.34372444     0.18700
C421        C  0.30982060  0.35712309  0.22613254    -0.07100
C422        C  0.27605143  0.30919321  0.21396598    -0.18200
C423        C  0.29269422  0.28417101  0.19483437     0.10100
C424        C  0.34494901  0.30621186  0.18813055    -0.07000
C425        C  0.37884078  0.35502208  0.19903625    -0.18300
C426        C  0.36188628  0.38090367  0.21776652     0.10100
S427        S  0.24647910  0.22422947  0.17841510    -0.33200
S428        S  0.40756786  0.44283967  0.23184743    -0.33200
H429        H  0.45024649  0.44758857  0.21663278     0.28100
H430        H  0.20278217  0.22139232  0.19107073     0.28100
H431        H  0.23585556  0.29152324  0.21894178     0.18700
H432        H  0.41899802  0.37166659  0.19416434     0.18700
C433        C  0.20574605  0.38228753  0.34725106    -0.07100
C434        C  0.20602129  0.42414612  0.35973650    -0.18200
C435        C  0.19412020  0.42518188  0.38961588     0.10100
C436        C  0.18487353  0.38409449  0.40830224    -0.07000
C437        C  0.18566598  0.34222459  0.39579069    -0.18300
C438        C  0.19526623  0.34057049  0.36527271     0.10100
S439        S  0.19236130  0.48028485  0.40281099    -0.33200
S440        S  0.19415153  0.28490815  0.35094122    -0.33200
H441        H  0.22414143  0.30738646  0.32551259     0.28100
H442        H  0.19489280  0.50225373  0.37482970     0.28100
H443        H  0.21437320  0.45597031  0.34563230     0.18700
H444        H  0.17866112  0.31060553  0.40981724     0.18700
C445        C  0.18426579  0.35955525  0.09748570    -0.07100
C446        C  0.22611622  0.37133335  0.11595022    -0.18200
C447        C  0.22422734  0.37716269  0.14661304     0.10100
C448        C  0.17831785  0.36817748  0.15994207    -0.07000
C449        C  0.13492751  0.35199594  0.14205326    -0.18300
C450        C  0.13715681  0.34703329  0.11091287     0.10100
S451        S  0.28385930  0.40159820  0.16623343    -0.33200
S452        S  0.08004145  0.32581010  0.08904879    -0.33200
H453        H  0.04856515  0.32492751  0.11235418     0.28100
H454        H  0.27454695  0.42870031  0.18803629     0.28100
H455        H  0.26226058  0.38002383  0.10619044     0.18700
H456        H  0.09957302  0.34409408  0.15252712     0.18700
C457        C  0.04407099  0.36259320  0.02184782    -0.07100
C458        C  0.03660907  0.38743280  0.04625854    -0.18200
C459        C  0.99290652  0.36272407  0.06452255     0.10100
C460        C  0.95544274  0.31186978  0.05847632    -0.07000
C461        C  0.96190598  0.28826356  0.03329251    -0.18300
C462        C  0.00439830  0.31318612  0.01460821     0.10100
S463        S  0.98921133  0.39675967  0.09642385    -0.33200
S464        S  0.00454542  0.28025036  0.98114625    -0.33200
H465        H  0.02881351  0.31880835  0.46317196     0.28100
H466        H  0.96413755  0.35430284  0.11507095     0.28100
H467        H  0.06636686  0.42520173  0.05232852     0.18700
H468        H  0.93264583  0.25018854  0.02756497     0.18700
C469        C  0.34608402  0.31107616  0.44114936    -0.07100
C470        C  0.31690361  0.28583406  0.46635585    -0.18200
C471        C  0.29973218  0.30915380  0.48651795     0.10100
C472        C  0.30872134  0.35844614  0.48086241    -0.07000
C473        C  0.33849784  0.38422436  0.45572792    -0.18300
C474        C  0.35766113  0.36129248  0.43609950     0.10100
S475        S  0.26836450  0.27441020  0.51981947    -0.33200
S476        S  0.39387272  0.39492019  0.40360702    -0.33200
H477        H  0.39250407  0.43954453  0.40876978     0.28100
H478        H  0.28791240  0.31735252  0.53843469     0.28100
H479        H  0.30859523  0.24786604  0.47106972     0.18700
H480        H  0.34516912  0.42166461  0.45086032     0.18700
C481        C  0.64266365  0.96322097  0.39230119    -0.07100
C482        C  0.62653941  0.96487383  0.36294666    -0.18200
C483        C  0.64794100  0.01009844  0.34634552     0.10100
C484        C  0.68822317  0.05510337  0.35868074    -0.07000
C485        C  0.70224877  0.05363701  0.38867380    -0.18300
C486        C  0.68003868  0.00887288  0.40541272     0.10100
S487        S  0.62512017  0.00686806  0.30887227    -0.33200
S488        S  0.70486464  0.01158418  0.44232849    -0.33200
H489        H  0.65726927  0.97806169  0.45490178     0.28100
H490        H  0.61563150  0.04685859  0.31342678     0.28100
H491        H  0.59813212  0.93031646  0.35239308     0.18700
H492        H  0.73232827  0.08762708  0.39909010     0.18700
C493        C  0.65214599  0.69813791  0.43164878    -0.07100
C494        C  0.62426259  0.66108505  0.45326744    -0.18200
C495        C  0.64660480  0.63841512  0.47024976     0.10100
C496        C  0.69882963  0.65410443  0.46629661    -0.07000
C497        C  0.72553687  0.69002036  0.44365850    -0.18300
C498        C  0.70296395  0.71140120  0.42641568     0.10100
S499        S  0.61039317  0.59483025  0.99848854    -0.33200
S500        S  0.74178363  0.75698379  0.39848957    -0.33200
H501        H  0.70130005  0.74739573  0.37920915     0.28100
H502        H  0.62024746  0.55730655  0.98786628     0.28100
H503        H  0.58533066  0.65104113  0.45767460     0.18700
H504        H  0.76512638  0.70244815  0.43920373     0.18700
C505        C  0.43695193  0.66399022  0.45811748    -0.07100
C506        C  0.39091200  0.65833857  0.44711973    -0.18200
C507        C  0.34477333  0.61232056  0.44970312     0.10100
C508        C  0.34474620  0.57034448  0.46266434    -0.07000
C509        C  0.39140378  0.57585214  0.47232180    -0.18300
C510        C  0.43667997  0.62211446  0.47113624     0.10100
S511        S  0.28759532  0.61010637  0.43680895    -0.33200
S512        S  0.49220944  0.62590036  0.48829798    -0.33200
H513        H  0.51606594  0.67757376  0.49567947     0.28100
H514        H  0.25865193  0.58521753  0.46217443     0.28100
H515        H  0.39092309  0.68985329  0.43619606     0.18700
H516        H  0.39195459  0.54443153  0.48305252     0.18700
C517        C  0.65375259  0.96506511  0.14126037    -0.07100
C518        C  0.62050423  0.97950422  0.12888559    -0.18200
C519        C  0.63912621  0.02341506  0.11112908     0.10100
C520        C  0.69199642  0.05268598  0.10508119    -0.07000
C521        C  0.72488279  0.03909904  0.11878934    -0.18300
C522        C  0.70671029  0.99698885  0.13725866     0.10100
S523        S  0.59478598  0.03923904  0.09462193    -0.33200
S524        S  0.75343812  0.98583871  0.15507203    -0.33200
H525        H  0.72356820  0.96163541  0.18033472     0.28100
H526        H  0.55072162  0.00078174  0.10841760     0.28100
H527        H  0.57989875  0.95489021  0.13172402     0.18700
H528        H  0.76561447  0.06198429  0.11548215     0.18700
C529        C  0.69163928  0.65347361  0.23007007    -0.07100
C530        C  0.68223248  0.64144570  0.19946407    -0.18200
C531        C  0.66303651  0.66497336  0.18075760     0.10100
C532        C  0.65327888  0.70176819  0.19280000    -0.07000
C533        C  0.66004147  0.71146660  0.22384028    -0.18300
C534        C  0.67929381  0.68823254  0.24240756     0.10100
S535        S  0.65531698  0.65043288  0.14142924    -0.33200
S536        S  0.68776110  0.70492237  0.28151971    -0.33200
H537        H  0.67998520  0.65814454  0.29160775     0.28100
H538        H  0.64832594  0.60180832  0.14510637     0.28100
H539        H  0.69283422  0.61576009  0.18980225     0.18700
H540        H  0.65054037  0.73789977  0.23379262     0.18700
C541        C  0.43653762  0.65632617  0.19272600    -0.07100
C542        C  0.39107553  0.65787037  0.19460935    -0.18200
C543        C  0.34392612  0.61381493  0.19899441     0.10100
C544        C  0.34139327  0.56666166  0.20083961    -0.07000
C545        C  0.38622265  0.56474018  0.19806615    -0.18300
C546        C  0.43355537  0.60861727  0.19500883     0.10100
S547        S  0.28906446  0.62048341  0.20533045    -0.33200
S548        S  0.48831676  0.60046947  0.19675470    -0.33200
H549        H  0.51535163  0.64104861  0.21674413     0.28100
H550        H  0.25439148  0.57488097  0.19116892     0.28100
H551        H  0.39210055  0.69363564  0.19287609     0.18700
H552        H  0.38483496  0.52896095  0.20119026     0.18700
C553        C  0.62412301  0.83813556  0.25699322    -0.07100
C554        C  0.58513444  0.83571685  0.27488522    -0.18200
C555        C  0.58158756  0.82456808  0.30518750     0.10100
C556        C  0.61734534  0.81407812  0.31879759    -0.07000
C557        C  0.65940200  0.82112261  0.30177107    -0.18300
C558        C  0.66343909  0.83357429  0.27099555     0.10100
S559        S  0.52981295  0.82454211  0.32487116    -0.33200
S560        S  0.71756901  0.84168127  0.24986443    -0.33200
H561        H  0.74188877  0.83183603  0.27345167     0.28100
H562        H  0.55720268  0.84362003  0.35157188     0.28100
H563        H  0.55576063  0.84115683  0.26488137     0.18700
H564        H  0.68790605  0.81498892  0.31226599     0.18700
C565        C  0.65262182  0.83727301  0.00600453    -0.07100
C566        C  0.64617618  0.79040625  0.01485104    -0.18200
C567        C  0.64751237  0.77893672  0.04509147     0.10100
C568        C  0.65548774  0.81493211  0.06744785    -0.07000
C569        C  0.66627241  0.86334318  0.05846801    -0.18300
C570        C  0.66481149  0.87480733  0.02810556     0.10100
S571        S  0.63430677  0.71607455  0.05398299    -0.33200
S572        S  0.67356452  0.93606347  0.01931155    -0.33200
H573        H  0.68902837  0.93708291  0.49192533     0.28100
H574        H  0.65829235  0.72856102  0.08212726     0.28100
H575        H  0.63624298  0.76103424  0.99821095     0.18700
H576        H  0.67144451  0.89103548  0.07534007     0.18700
C577        C  0.04050777  0.69166362  0.30450968    -0.07100
C578        C  0.03988561  0.71129241  0.27601300    -0.18200
C579        C  0.99747175  0.68847007  0.25717581     0.10100
C580        C  0.95291956  0.64504946  0.26677343    -0.07000
C581        C  0.95416486  0.62273098  0.29405677    -0.18300
C582        C  0.99764063  0.64497344  0.31269202     0.10100
S583        S  0.00273254  0.71689133  0.22108954    -0.33200
S584        S  0.99493368  0.61323144  0.34692049    -0.33200
H585        H  0.04102805  0.61441970  0.34147182     0.28100
H586        H  0.96820306  0.67169261  0.20639201     0.28100
H587        H  0.07288886  0.74552081  0.26812254     0.18700
H588        H  0.92031245  0.58885017  0.30152737     0.18700
C589        C  0.30231562  0.95592805  0.36626445    -0.07100
C590        C  0.28381697  0.96140463  0.39413056    -0.18200
C591        C  0.30800379  0.00613184  0.41069952     0.10100
C592        C  0.35196982  0.04847143  0.39942334    -0.07000
C593        C  0.37283466  0.04283443  0.37247379    -0.18300
C594        C  0.34828732  0.99740139  0.35566952     0.10100
S595        S  0.28099609  0.00621390  0.44652160    -0.33200
S596        S  0.37523931  0.99638673  0.32007615    -0.33200
H597        H  0.32836598  0.97420935  0.30481249     0.28100
H598        H  0.32828452  0.03836753  0.46017962     0.28100
H599        H  0.24941800  0.93035855  0.40336895     0.18700
H600        H  0.40652550  0.07509194  0.36338169     0.18700
C601        C  0.42386211  0.77732684  0.38917992    -0.07100
C602        C  0.41687611  0.81581453  0.40160410    -0.18200
C603        C  0.36998970  0.81396389  0.40022372     0.10100
C604        C  0.32827692  0.77255625  0.38630724    -0.07000
C605        C  0.33394918  0.73260266  0.37533852    -0.18300
C606        C  0.38119686  0.73482417  0.37616265     0.10100
S607        S  0.36351047  0.86457433  0.41650291    -0.33200
S608        S  0.38468292  0.68360560  0.35869882    -0.33200
H609        H  0.43057536  0.71546686  0.34374150     0.28100
H610        H  0.41531128  0.89702870  0.42317753     0.28100
H611        H  0.44826797  0.84764997  0.41278372     0.18700
H612        H  0.30234689  0.70113785  0.36394743     0.18700
C613        C  0.24056015  0.57231248  0.30021276    -0.07100
C614        C  0.19381642  0.56435306  0.31068714    -0.18200
C615        C  0.18459877  0.60439492  0.31456446     0.10100
C616        C  0.22382205  0.65498385  0.30874891    -0.07000
C617        C  0.27156405  0.66286703  0.29947418    -0.18300
C618        C  0.28010447  0.62233034  0.29496707     0.10100
S619        S  0.12092910  0.58683422  0.32585371    -0.33200
S620        S  0.34139102  0.63650577  0.28076520    -0.33200
H621        H  0.33948928  0.59274396  0.29188394     0.28100
H622        H  0.11266666  0.60966076  0.30088466     0.28100
H623        H  0.16266344  0.52597241  0.31355444     0.18700
H624        H  0.30252745  0.70088674  0.29536332     0.18700
C625        C  0.04622367  0.68659540  0.06304972    -0.07100
C626        C  0.04754462  0.68002016  0.03192566    -0.18200
C627        C  0.00291599  0.65784453  0.01449238     0.10100
C628        C  0.95560890  0.64243060  0.02832732    -0.07000
C629        C  0.95420242  0.64548977  0.05977429    -0.18300
C630        C  0.99864286  0.66647240  0.07718271     0.10100
S631        S  0.00443370  0.64298129  0.47809389    -0.33200
S632        S  0.99276515  0.67113382  0.11691184    -0.33200
H633        H  0.02838994  0.65645810  0.12421712     0.28100
H634        H  0.97473716  0.66388822  0.46897155     0.28100
H635        H  0.08403778  0.69513024  0.02084044     0.18700
H636        H  0.91811155  0.63299679  0.07087842     0.18700
C637        C  0.31589714  0.95437782  0.11172738    -0.07100
C638        C  0.31438890  0.95581264  0.14322974    -0.18200
C639        C  0.33631482  0.00162402  0.15920354     0.10100
C640        C  0.36132366  0.04769790  0.14354131    -0.07000
C641        C  0.36665985  0.04622951  0.11228396    -0.18300
C642        C  0.34527604  0.00028601  0.09639627     0.10100
S643        S  0.32697124  0.99860088  0.19909637    -0.33200
S644        S  0.35309663  0.00275136  0.05650147    -0.33200
H645        H  0.36851908  0.96650487  0.05599297     0.28100
H646        H  0.31651390  0.03832687  0.20069444     0.28100
H647        H  0.29314385  0.92077342  0.15545387     0.18700
H648        H  0.38620161  0.08136861  0.09996876     0.18700
C649        C  0.44073482  0.77298350  0.11360524    -0.07100
C650        C  0.39498193  0.73041359  0.12271767    -0.18200
C651        C  0.34903527  0.73097487  0.12337202     0.10100
C652        C  0.34835946  0.77509031  0.11463834    -0.07000
C653        C  0.39403189  0.81637278  0.10394428    -0.18300
C654        C  0.43930496  0.81534078  0.10272206     0.10100
S655        S  0.29344264  0.67481959  0.13638371    -0.33200
S656        S  0.49438149  0.86973243  0.08715654    -0.33200
H657        H  0.51906446  0.84347248  0.07808853     0.28100
H658        H  0.27930123  0.70127226  0.15629891     0.28100
H659        H  0.39558290  0.69773304  0.13138747     0.27100
H660        H  0.39472265  0.84992159  0.09571302     0.18700
C661        C  0.23105039  0.56531177  0.05559000    -0.07100
C662        C  0.18330048  0.56185863  0.05659227    -0.18200
C663        C  0.17820790  0.60465837  0.05427676     0.10100
C664        C  0.22221072  0.65364231  0.05315273    -0.07000
C665        C  0.27024577  0.65723294  0.05390683    -0.18300
C666        C  0.27500715  0.61389702  0.05476076     0.10100
S667        S  0.11405540  0.59301573  0.05032723    -0.33200
S668        S  0.33814547  0.62272774  0.05229847    -0.33200
H669        H  0.32569425  0.57626579  0.06538549     0.28100
H670        H  0.12686357  0.63088282  0.02875684     0.28100
H671        H  0.14922327  0.52484585  0.05548302     0.18700
H672        H  0.30452122  0.69405634  0.05393444     0.18700
C673        C  0.16359739  0.81458593  0.43053482    -0.07100
C674        C  0.21469203  0.84357827  0.43960532    -0.18200
C675        C  0.22816288  0.85631245  0.46955153     0.10100
C676        C  0.19000748  0.83827147  0.49164788    -0.07000
C677        C  0.13862657  0.81344153  0.48249991    -0.18300
C678        C  0.12495924  0.80143071  0.45211844     0.10100
S679        S  0.29506815  0.89290270  0.47853547    -0.33200
S680        S  0.05803691  0.76675866  0.44301106    -0.33200
H681        H  0.06154698  0.74840771  0.41488137     0.28100
H682        H  0.29956762  0.90715636  0.00497834     0.28100
H683        H  0.24475073  0.85403956  0.42330881     0.18700
H684        H  0.10893165  0.79948793  0.49926787     0.18700
C685        C  0.18892566  0.81550537  0.24490594    -0.07100
C686        C  0.19143822  0.85397269  0.22656600    -0.18200
C687        C  0.18088170  0.84574399  0.19550910     0.10100
C688        C  0.16761916  0.79822639  0.18283494    -0.07000
C689        C  0.16037851  0.75905280  0.20180964    -0.18300
C690        C  0.17064172  0.76684709  0.23221731     0.10100
S691        S  0.18757926  0.89657184  0.17214001    -0.33200
S692        S  0.16092230  0.71244927  0.25297480    -0.33200
H693        H  0.14698451  0.72681022  0.27930831     0.28100
H694        H  0.20164393  0.93283304  0.19502760     0.28100
H695        H  0.20435587  0.89096498  0.23618356     0.18700
H696        H  0.14895121  0.72208873  0.19248464     0.18700
O697        O  0.18958032  0.85068054  0.54494174    -0.86300
O698        O  0.11332210  0.76547736  0.56866442    -0.83400
C699        C  0.09088468  0.72192658  0.57963498     0.97100
O700        O  0.11033631  0.71183457  0.60177379    -0.83400
O701        O  0.17589484  0.69635127  0.56910117    -0.86000
C702        C  0.21508314  0.70100953  0.55694670     1.01700
O703        O  0.25387477  0.74519316  0.55411480    -0.78800
O704        O  0.22781053  0.81138735  0.52739986    -0.79000
C705        C  0.20291912  0.83346642  0.52303579     1.01600
O706        O  0.23021572  0.88239589  0.60580453    -0.86300
O707        O  0.14824632  0.80334685  0.63015910    -0.83400
C708        C  0.16960586  0.79155943  0.65052160     0.97200
O709        O  0.19386479  0.76960946  0.64375064    -0.83400
O710        O  0.25516431  0.74179841  0.61242670    -0.86000
C711        C  0.29943154  0.78002462  0.60982758     1.01600
O712        O  0.30364953  0.82034958  0.60021837    -0.78800
O713        O  0.28653935  0.88917986  0.57286769    -0.79000
C714        C  0.27455133  0.90646002  0.59545375     1.01600
Cr715      Cr  0.17265819  0.82326912  0.58724970     1.93700
Cr716      Cr  0.18520668  0.73420839  0.60580350     1.93200
Cr717      Cr  0.26375964  0.81511503  0.56470575     1.39100
O718        O  0.20726150  0.79098812  0.58580124    -1.24100
O719        O  0.19200211  0.84952691  0.79561825    -0.86300
O720        O  0.10992305  0.77104519  0.81836518    -0.83400
C721        C  0.08370472  0.72567847  0.82581861     0.97100
O722        O  0.09822495  0.70951143  0.84772565    -0.83400
O723        O  0.17269204  0.69521750  0.82375717    -0.86000
C724        C  0.21461622  0.70097969  0.81534682     1.01700
O725        O  0.25372663  0.74513752  0.81603870    -0.78800
O726        O  0.23293156  0.80975599  0.78426546    -0.79000
C727        C  0.20479548  0.82698684  0.77654196     1.01600
O728        O  0.22407735  0.88406064  0.85799126    -0.86300
O729        O  0.13929088  0.80868036  0.88008985    -0.83400
C730        C  0.15684278  0.79488516  0.90155247     0.97200
O731        O  0.17166829  0.76386585  0.89713674    -0.83400
O732        O  0.23946971  0.73931295  0.87376515    -0.86000
C733        C  0.28378730  0.77825348  0.87534703     1.01600
O734        O  0.29233910  0.81876053  0.86330693    -0.78800
O735        O  0.28528676  0.88957447  0.83017409    -0.79000
C736        C  0.26974245  0.90807581  0.85025796     1.01600
Cr737      Cr  0.16864008  0.82573308  0.83819238     1.93700
Cr738      Cr  0.17186784  0.73149126  0.85948636     1.93200
Cr739      Cr  0.26147544  0.81450316  0.82427996     1.39100
O740        O  0.20037845  0.79044219  0.84057103    -1.24100
O741        O  0.66378390  0.80976929  0.62054344    -0.86300
O742        O  0.65332563  0.88588057  0.64172528    -0.83400
C743        C  0.63229517  0.90964177  0.65077101     0.97100
O744        O  0.59523396  0.88896985  0.66890918    -0.83400
O745        O  0.51863498  0.81823697  0.63409329    -0.86000
C746        C  0.48680362  0.77768913  0.62162380     1.01700
O747        O  0.49230562  0.73924290  0.62313368    -0.78800
O748        O  0.58732518  0.76665417  0.60074068    -0.79000
C749        C  0.63457643  0.79490083  0.59779728     1.01600
O750        O  0.64998080  0.77215926  0.68270983    -0.86300
O751        O  0.64792556  0.85225953  0.70390805    -0.83400
C752        C  0.61183938  0.83234371  0.72279338     0.97200
O753        O  0.56627184  0.81014410  0.71395052    -0.83400
O754        O  0.48211732  0.74395871  0.68095131    -0.86000
C755        C  0.47873201  0.70086889  0.68217484     1.01600
O756        O  0.51525814  0.69632474  0.67320210    -0.78800
O757        O  0.60508706  0.71360172  0.64982450    -0.79000
C758        C  0.63243304  0.72792302  0.67333193     1.01600
Cr759      Cr  0.64893945  0.82731079  0.66180588     1.93700
Cr760      Cr  0.54367503  0.81397595  0.67353553     1.93200
Cr761      Cr  0.55273822  0.73343547  0.63788360     1.39100
O762        O  0.58193952  0.79168363  0.65768683    -1.24100
O763        O  0.64474870  0.80614580  0.86755756    -0.86300
O764        O  0.64701384  0.88584180  0.89261751    -0.83400
C765        C  0.62845545  0.91099359  0.90308859     0.97100
O766        O  0.60065907  0.89520450  0.92634720    -0.83400
O767        O  0.51055741  0.82242334  0.90225591    -0.86000
C768        C  0.47368794  0.78103495  0.89351162     1.01700
O769        O  0.47882491  0.74234371  0.89260801    -0.78800
O770        O  0.56289165  0.76582175  0.85801751    -0.79000
C771        C  0.60800995  0.79388458  0.84940325     1.01600
O772        O  0.65287363  0.77272241  0.92843958    -0.86300
O773        O  0.66201940  0.85656184  0.95320058    -0.83400
C774        C  0.63302374  0.83946608  0.97589367     0.97200
O775        O  0.58568186  0.82056563  0.97312663    -0.83400
O776        O  0.49060521  0.75317554  0.95007065    -0.86000
C777        C  0.48564864  0.70935944  0.94953200     1.01600
O778        O  0.51801457  0.70240236  0.93633133    -0.78800
O779        O  0.59471878  0.71317789  0.90022115    -0.79000
C780        C  0.63106444  0.72817348  0.91890719     1.01600
Cr781      Cr  0.64683324  0.82796847  0.91085559     1.93700
Cr782      Cr  0.54979287  0.82142421  0.93670579     1.93200
Cr783      Cr  0.54189689  0.73537549  0.89770861     1.39100
O784        O  0.57967915  0.79500568  0.91516226    -1.24100
O785        O  0.19028941  0.36168244  0.95903440    -0.86300
O786        O  0.23404212  0.34686110  0.00817357    -0.83400
C787        C  0.27875730  0.37495273  0.99873146     0.97100
O788        O  0.30015547  0.42710330  0.50143022    -0.83400
O789        O  0.30500823  0.51450639  0.00253844    -0.86000
C790        C  0.30063504  0.52476366  0.97590625     1.01700
O791        O  0.25873425  0.49912499  0.96188389    -0.78800
O792        O  0.16139283  0.41283516  0.95177196    -0.79000
C793        C  0.17879621  0.38635909  0.94137975     1.01600
O794        O  0.10900201  0.35437674  0.49639680    -0.86300
O795        O  0.16207491  0.35432528  0.54573693    -0.83400
C796        C  0.19689648  0.37322683  0.56516157     0.97200
O797        O  0.24240197  0.40257898  0.55714222    -0.83400
O798        O  0.24003621  0.49352483  0.55192465    -0.86000
C799        C  0.22838582  0.52371125  0.53948636     1.01600
O800        O  0.21664960  0.51936128  0.51228921    -0.78800
O801        O  0.12717691  0.43168738  0.00806407    -0.79000
C802        C  0.09446006  0.38345473  0.50682765     1.01600
Cr803      Cr  0.17697993  0.36002125  0.50225726     1.93700
Cr804      Cr  0.26725936  0.45738485  0.52676693     1.93200
Cr805      Cr  0.19274761  0.46255091  0.98491936     1.39100
O806        O  0.21173206  0.42705395  0.50457721    -1.24100
O807        O  0.18846438  0.35592379  0.71157818    -0.86300
O808        O  0.24478183  0.35638846  0.75886990    -0.83400
C809        C  0.28603260  0.38393422  0.74519106     0.97100
O810        O  0.30446270  0.43125617  0.74578325    -0.83400
O811        O  0.30392997  0.52066270  0.74242427    -0.86000
C812        C  0.29295214  0.52479044  0.71590497     1.01700
O813        O  0.24928828  0.49502655  0.70516037    -0.78800
O814        O  0.15690925  0.40435989  0.70061664    -0.79000
C815        C  0.17342990  0.37558954  0.69249595     1.01600
O816        O  0.11135815  0.35180792  0.75243459    -0.86300
O817        O  0.17552921  0.36445948  0.79871463    -0.83400
C818        C  0.21399569  0.38695282  0.81541806     0.97200
O819        O  0.25768569  0.41575535  0.80470348    -0.83400
O820        O  0.25021553  0.50246650  0.79600091    -0.86000
C821        C  0.23326454  0.52865481  0.78407620     1.01600
O822        O  0.21547044  0.51967038  0.75787306    -0.78800
O823        O  0.12662681  0.42917208  0.75746747    -0.79000
C824        C  0.09770490  0.38243946  0.76141363     1.01600
Cr825      Cr  0.18209186  0.36176609  0.75510658     1.93700
Cr826      Cr  0.27466754  0.46440900  0.77101797     1.93200
Cr827      Cr  0.18858750  0.45919206  0.73175555     1.39100
O828        O  0.21506572  0.42889155  0.75274636    -1.24100
O829        O  0.34528874  0.19807709  0.62531826    -0.86300
O830        O  0.35310168  0.12063083  0.64665042    -0.83400
C831        C  0.37238023  0.09656877  0.65766975     0.97100
O832        O  0.40207880  0.11445613  0.68014010    -0.83400
O833        O  0.48722530  0.18639617  0.65138768    -0.86000
C834        C  0.52233088  0.22797126  0.64183225     1.01700
O835        O  0.51509792  0.26552863  0.64086208    -0.78800
O836        O  0.42516695  0.24061950  0.61072780    -0.79000
C837        C  0.37841170  0.21491660  0.60472377     1.01600
O838        O  0.34551306  0.23026696  0.68660448    -0.86300
O839        O  0.34435071  0.14814733  0.70868619    -0.83400
C840        C  0.37551342  0.17067501  0.72993777     0.97200
O841        O  0.42261629  0.19270066  0.72536716    -0.83400
O842        O  0.51349410  0.25894358  0.69830686    -0.86000
C843        C  0.51668893  0.30191856  0.69798539     1.01600
O844        O  0.47981125  0.30490900  0.68806406    -0.78800
O845        O  0.39741646  0.29078891  0.65672980    -0.79000
C846        C  0.36304093  0.27424535  0.67676079     1.01600
Cr847      Cr  0.35167229  0.17658247  0.66690201     1.93700
Cr848      Cr  0.45334386  0.18916500  0.68779283     1.93200
Cr849      Cr  0.45181347  0.27121650  0.64998379     1.39100
O850        O  0.41883035  0.21216640  0.66795441    -1.24100
O851        O  0.34751182  0.19300224  0.96032435    -0.86300
O852        O  0.33793221  0.23976694  0.91202232    -0.83400
C853        C  0.36742396  0.28350643  0.92257420     0.97100
O854        O  0.41478311  0.30303000  0.91888245    -0.83400
O855        O  0.50675713  0.30744581  0.91947375    -0.86000
C856        C  0.51642046  0.30213231  0.94611172     1.01700
O857        O  0.48881728  0.26136500  0.96018495    -0.78800
O858        O  0.40110308  0.16734669  0.97144053    -0.79000
C859        C  0.36969711  0.18085097  0.97935323     1.01600
O860        O  0.34284684  0.11286672  0.92362522    -0.86300
O861        O  0.34414515  0.16512570  0.87412718    -0.83400
C862        C  0.36174906  0.19950170  0.85483230     0.97200
O863        O  0.39019316  0.24495340  0.86317107    -0.83400
O864        O  0.48158622  0.24383524  0.86947142    -0.86000
C865        C  0.51224172  0.23275586  0.88187193     1.01600
O866        O  0.50829801  0.22110196  0.90909145    -0.78800
O867        O  0.42073530  0.13085244  0.91491443    -0.79000
C868        C  0.37360079  0.09984571  0.91381167     1.01600
Cr869      Cr  0.34778124  0.18009747  0.91739889     1.93700
Cr870      Cr  0.44553861  0.27079977  0.89416621     1.93200
Cr871      Cr  0.45139092  0.19604523  0.93757783     1.39100
O872        O  0.41533870  0.21584201  0.91646830    -1.24100
O873        O  0.82997613  0.19028535  0.53384763    -0.86300
O874        O  0.89116210  0.23609398  0.58211140    -0.83400
C875        C  0.90620889  0.28132016  0.57487360     0.97100
O876        O  0.87873742  0.30023670  0.58067195    -0.83400
O877        O  0.79153659  0.30389431  0.57765447    -0.86000
C878        C  0.77470485  0.29725503  0.55120411     1.01700
O879        O  0.75789744  0.25512291  0.53778487    -0.78800
O880        O  0.74852829  0.15977517  0.52741770    -0.79000
C881        C  0.79237783  0.17517155  0.51654564     1.01600
O882        O  0.75641752  0.11033347  0.57224201    -0.86300
O883        O  0.81194532  0.16137972  0.62046709    -0.83400
C884        C  0.82509203  0.19332365  0.64123325     0.97200
O885        O  0.84089724  0.23944397  0.63560027    -0.83400
O886        O  0.75023753  0.24154397  0.62842906    -0.86000
C887        C  0.70882490  0.23198971  0.61599710     1.01600
O888        O  0.70005796  0.21823798  0.58915029    -0.78800
O889        O  0.69791026  0.12757659  0.58530326    -0.79000
C890        C  0.71527264  0.09786213  0.58585429     1.01600
Cr891      Cr  0.82035596  0.17721173  0.57744476     1.93700
Cr892      Cr  0.81401118  0.26700621  0.60403511     1.93200
Cr893      Cr  0.73047413  0.19112233  0.56119465     1.39100
O894        O  0.78852269  0.21244122  0.58086844    -1.24100
O895        O  0.79546038  0.14953395  0.78716902    -0.86300
O896        O  0.87461593  0.23567054  0.80840417    -0.83400
C897        C  0.89868857  0.28096852  0.81679900     0.97100
O898        O  0.88024021  0.29624018  0.83706920    -0.83400
O899        O  0.81118852  0.30573231  0.80346273    -0.86000
C900        C  0.77090947  0.30002165  0.79229569     1.01700
O901        O  0.73144287  0.25607918  0.79218527    -0.78800
O902        O  0.75739691  0.18784926  0.76785748    -0.79000
C903        C  0.78101546  0.16425021  0.76456677     1.01600
O904        O  0.75695220  0.12475617  0.84899228    -0.86300
O905        O  0.83946575  0.20587843  0.87098555    -0.83400
C906        C  0.81731567  0.21940727  0.88991170     0.97200
O907        O  0.79991968  0.24693351  0.88184284    -0.83400
O908        O  0.73533546  0.26678293  0.85002319    -0.86000
C909        C  0.69145874  0.22707914  0.85046466     1.01600
O910        O  0.68601600  0.18650768  0.84033048    -0.78800
O911        O  0.70094139  0.11439024  0.81487347    -0.79000
C912        C  0.71349726  0.09849247  0.83779186     1.01600
Cr913      Cr  0.81449690  0.18138599  0.82864951     1.93700
Cr914      Cr  0.80540899  0.27475398  0.84213224     1.93200
Cr915      Cr  0.72339247  0.18794034  0.80490817     1.39100
O916        O  0.78113145  0.21458872  0.82526811    -1.24100
O917        O  0.86092692  0.65760588  0.95801482    -0.86300
O918        O  0.77687357  0.65662312  0.97633827    -0.83400
C919        C  0.73055699  0.63697691  0.98270429     0.97100
O920        O  0.70957342  0.60230265  0.50452802    -0.83400
O921        O  0.70207014  0.52275088  0.97341752    -0.86000
C922        C  0.70591207  0.48587046  0.96490807     1.01700
O923        O  0.74915898  0.48905639  0.96691368    -0.78800
O924        O  0.81832934  0.57991895  0.94070242    -0.79000
C925        C  0.84039445  0.62675849  0.93637087     1.01600
O926        O  0.87931041  0.64602432  0.52312824    -0.86300
O927        O  0.79955567  0.65413797  0.54077857    -0.83400
C928        C  0.77990936  0.62065033  0.56100461     0.97200
O929        O  0.75472652  0.57461286  0.55410399    -0.83400
O930        O  0.73404498  0.48601863  0.52572879    -0.86000
C931        C  0.77311918  0.48087270  0.52764527     1.01600
O932        O  0.81521274  0.51625804  0.51889598    -0.78800
O933        O  0.89259704  0.60063807  0.98879060    -0.79000
C934        C  0.90469689  0.62684543  0.51384819     1.01600
Cr935      Cr  0.82848813  0.65015874  0.99876464     1.93700
Cr936      Cr  0.72852280  0.54837257  0.51416527     1.93200
Cr937      Cr  0.81827532  0.54957462  0.97904901     1.39100
O938        O  0.79286351  0.58352768  0.99698989    -1.24100
O939        O  0.80595629  0.65548788  0.70665040    -0.86300
O940        O  0.75823092  0.66089428  0.75656495    -0.83400
C941        C  0.71414261  0.63050872  0.74671354     0.97100
O942        O  0.69589649  0.58370209  0.74978010    -0.83400
O943        O  0.69348876  0.49545854  0.74282625    -0.86000
C944        C  0.69924272  0.49018219  0.71544548     1.01700
O945        O  0.74075894  0.51917217  0.70210395    -0.78800
O946        O  0.83652523  0.60701367  0.69428254    -0.79000
C947        C  0.81955299  0.63552880  0.68684967     1.01600
O948        O  0.88729278  0.65867555  0.74345966    -0.86300
O949        O  0.83394739  0.65478115  0.79307660    -0.83400
C950        C  0.80008648  0.63397026  0.81279008     0.97200
O951        O  0.75485862  0.60159982  0.80533355    -0.83400
O952        O  0.75659888  0.51219067  0.79258605    -0.86000
C953        C  0.76695797  0.48334942  0.77744696     1.01600
O954        O  0.77912918  0.49203621  0.75038545    -0.78800
O955        O  0.86976739  0.58086013  0.74958027    -0.79000
C956        C  0.89996751  0.62760746  0.75297222     1.01600
Cr957      Cr  0.81906360  0.65277825  0.74983846     1.93700
Cr958      Cr  0.72945800  0.55155393  0.77134719     1.93200
Cr959      Cr  0.80566061  0.55294947  0.72565922     1.39100
O960        O  0.78457088  0.58545962  0.74912210    -1.24100
C961        C  0.83644498  0.64353195  0.90616420    -0.07100
C962        C  0.78805715  0.63347242  0.89715798    -0.18200
C963        C  0.77671972  0.63571063  0.86714922     0.10100
C964        C  0.81375305  0.64537294  0.84501688    -0.07000
C965        C  0.86362799  0.65957923  0.85433812    -0.18300
C966        C  0.87529962  0.65901878  0.88478589     0.10100
S967        S  0.71397512  0.62486803  0.85874182    -0.33200
S968        S  0.93835805  0.67399475  0.89602747    -0.33200
H969        H  0.96180912  0.69397861  0.86837741     0.28100
H970        H  0.73030742  0.65929468  0.83486755     0.28100
H971        H  0.75804320  0.62159327  0.91359619     0.18700
H972        H  0.89259812  0.66772843  0.83770803     0.18700
C973        C  0.80984344  0.64022224  0.65506039    -0.07100
C974        C  0.76087231  0.60670177  0.64441400    -0.18200
C975        C  0.74879527  0.60391611  0.61415222     0.10100
C976        C  0.78721020  0.63379804  0.59329487    -0.07000
C977        C  0.83591484  0.66948829  0.60408271    -0.18300
C978        C  0.84744696  0.67336950  0.63483696     0.10100
S979        S  0.68376560  0.56004796  0.60353684    -0.33200
S980        S  0.91095244  0.71957440  0.64664254    -0.33200
H981        H  0.89950806  0.72211456  0.67678870     0.28100
H982        H  0.68342497  0.58860434  0.57905607     0.28100
H983        H  0.73193576  0.58109357  0.65976616     0.18700
H984        H  0.86584940  0.69250748  0.58841310     0.18700
C985        C  0.76850410  0.34652059  0.78602740    -0.07100
C986        C  0.72197519  0.34565589  0.78914322    -0.18200
C987        C  0.72014389  0.39067380  0.78998950     0.10100
C988        C  0.76589067  0.43798412  0.78914089    -0.07000
C989        C  0.81210180  0.43857726  0.78659251    -0.18300
C990        C  0.81373014  0.39409315  0.78356749     0.10100
S991        S  0.65829711  0.38523064  0.78974980    -0.33200
S992        S  0.87445236  0.40100376  0.77385562    -0.33200
H993        H  0.85288714  0.35996831  0.75378361     0.28100
H994        H  0.67369272  0.43137854  0.80436481     0.28100
H995        H  0.68683686  0.30982633  0.79123315     0.18700
H996        H  0.84706851  0.47440841  0.78363786     0.18700
C997        C  0.77300850  0.34027554  0.53800309    -0.07100
C998        C  0.72643495  0.33957797  0.53820188    -0.18200
C999        C  0.72458786  0.38453665  0.53661098     0.10100
C1000       C  0.77046667  0.43176262  0.53458421    -0.07000
C1001       C  0.81683484  0.43154298  0.53408514    -0.18300
C1002       C  0.81846425  0.38689043  0.53533541     0.10100
S1003       S  0.66271844  0.37869730  0.53809046    -0.33200
S1004       S  0.88023946  0.39187667  0.53454969    -0.33200
H1005       H  0.86303205  0.34271602  0.52365769     0.28100
H1006       H  0.67700489  0.41616998  0.56027271     0.28100
H1007       H  0.69142425  0.30406404  0.54166691     0.18700
H1008       H  0.85277919  0.46662168  0.53220053     0.18700
C1009       C  0.79835454  0.18085955  0.98380238    -0.07100
C1010       C  0.76195116  0.18679150  0.96804704    -0.18200
C1011       C  0.76608958  0.19612805  0.93753267     0.10100
C1012       C  0.80945875  0.20270644  0.92166572    -0.07000
C1013       C  0.84485230  0.19410373  0.93690090    -0.18300
C1014       C  0.83907461  0.18210448  0.96761580     0.10100
S1015       S  0.71298257  0.19740046  0.92049213    -0.33200
S1016       S  0.88290001  0.16606001  0.98430699    -0.33200
H1017       H  0.84527283  0.12621258  0.50412624     0.28100
H1018       H  0.71334190  0.17144857  0.89465014     0.28100
H1019       H  0.72962409  0.18462289  0.97966112     0.18700
H1020       H  0.87711617  0.19685051  0.92493377     0.18700
C1021       C  0.81623739  0.17543467  0.67242626    -0.07100
C1022       C  0.76538303  0.14670798  0.68155702    -0.18200
C1023       C  0.75277023  0.13679252  0.71176171     0.10100
C1024       C  0.79173782  0.15537983  0.73355994    -0.07000
C1025       C  0.84261318  0.17806905  0.72408367    -0.18300
C1026       C  0.85537839  0.18922211  0.69372238     0.10100
S1027       S  0.68613465  0.10273821  0.72133218    -0.33200
S1028       S  0.92186417  0.22323724  0.68379319    -0.33200
H1029       H  0.91512738  0.20776392  0.65370777     0.28100
H1030       H  0.69289472  0.08541421  0.74899941     0.28100
H1031       H  0.73509124  0.13455887  0.66518098     0.18700
H1032       H  0.87274809  0.19121118  0.74059464     0.18700
C1033       C  0.64494276  0.22858522  0.85885486    -0.07100
C1034       C  0.64639972  0.27522488  0.85895894    -0.18200
C1035       C  0.60207513  0.27785328  0.86312469     0.10100
C1036       C  0.55468669  0.23289799  0.86626899    -0.07000
C1037       C  0.55307663  0.18644176  0.86570282    -0.18300
C1038       C  0.59738940  0.18359919  0.86306409     0.10100
S1039       S  0.60909156  0.33963127  0.86706539    -0.33200
S1040       S  0.59226615  0.12241423  0.86779733    -0.33200
H1041       H  0.53970148  0.09419383  0.87357049     0.28100
H1042       H  0.56085444  0.32599168  0.85555478     0.28100
H1043       H  0.68229052  0.30999009  0.85587147     0.18700
H1044       H  0.51707283  0.15237493  0.86997846     0.18700
C1045       C  0.56332301  0.34442661  0.95850836    -0.07100
C1046       C  0.60913651  0.34555346  0.95208198    -0.18200
C1047       C  0.65603105  0.39109681  0.95198978     0.10100
C1048       C  0.65777546  0.43702016  0.95921675    -0.07000
C1049       C  0.61142457  0.43515941  0.96590417    -0.18300
C1050       C  0.56486110  0.38986416  0.96568674     0.10100
S1051       S  0.71122309  0.38797782  0.94070641    -0.33200
S1052       S  0.50482926  0.39177614  0.47407444    -0.33200
H1053       H  0.47383759  0.34130440  0.48311252     0.28100
H1054       H  0.73027455  0.43082554  0.92226158     0.28100
H1055       H  0.60789085  0.31117141  0.94473943     0.18700
H1056       H  0.60831976  0.46751886  0.47318143     0.18700
C1057       C  0.66903609  0.23799989  0.63090853    -0.07100
C1058       C  0.66282300  0.27843988  0.62174085    -0.18200
C1059       C  0.61616983  0.27723438  0.62522430     0.10100
C1060       C  0.57373715  0.23345041  0.63711449    -0.07000
C1061       C  0.58146602  0.19436705  0.64778467    -0.18300
C1062       C  0.62843911  0.19644792  0.64495696     0.10100
S1063       S  0.61156602  0.33090736  0.61299205    -0.33200
S1064       S  0.63550928  0.14419129  0.65719097    -0.33200
H1065       H  0.58854702  0.11772243  0.67207861     0.28100
H1066       H  0.66422630  0.36461159  0.61026433     0.28100
H1067       H  0.69379362  0.30970370  0.61001270     0.18700
H1068       H  0.55033458  0.16137804  0.65811179     0.18700
C1069       C  0.65701104  0.44525688  0.70158780    -0.07100
C1070       C  0.65836636  0.40031214  0.70426031    -0.18200
C1071       C  0.61351238  0.35309035  0.70550119     0.10100
C1072       C  0.56558639  0.35012641  0.70290954    -0.07000
C1073       C  0.56488133  0.39555456  0.69947928    -0.18300
C1074       C  0.60958983  0.44244240  0.69869530     0.10100
S1075       S  0.62063414  0.29906640  0.71223078    -0.33200
S1076       S  0.60379394  0.49802308  0.69583701    -0.33200
H1077       H  0.65223853  0.52828534  0.68338187     0.28100
H1078       H  0.58433241  0.28042313  0.73532234     0.28100
H1079       H  0.69450977  0.40234558  0.70835245     0.18700
H1080       H  0.52907189  0.39488374  0.69716983     0.18700
C1081       C  0.35873465  0.17507875  0.76014778    -0.07100
C1082       C  0.33423834  0.13278702  0.77874213    -0.18200
C1083       C  0.33022360  0.13852568  0.80976126     0.10100
C1084       C  0.35178088  0.18795460  0.82224277    -0.07000
C1085       C  0.37103841  0.22932208  0.80274419    -0.18300
C1086       C  0.37521250  0.22354410  0.77214271     0.10100
S1087       S  0.29946007  0.08255807  0.83271484    -0.33200
S1088       S  0.40536216  0.27922222  0.74893014    -0.33200
H1089       H  0.40640481  0.31369772  0.77017069     0.28100
H1090       H  0.28783770  0.04685963  0.80975702     0.28100
H1091       H  0.32122491  0.09569307  0.76923476     0.18700
H1092       H  0.38612548  0.26708728  0.81169243     0.18700
C1093       C  0.35926856  0.18509986  0.51132180    -0.07100
C1094       C  0.37541655  0.23402211  0.52194828    -0.18200
C1095       C  0.37740625  0.24398955  0.55256566     0.10100
C1096       C  0.36329528  0.20434176  0.57312265    -0.07000
C1097       C  0.34329361  0.15470216  0.56246434    -0.18300
C1098       C  0.34063667  0.14469212  0.53170115     0.10100
S1099       S  0.40035218  0.30836691  0.56416188    -0.33200
S1100       S  0.31330734  0.08007850  0.51965064    -0.33200
H1101       H  0.29675430  0.08832483  0.99143600     0.28100
H1102       H  0.37377826  0.29612980  0.59141439     0.28100
H1103       H  0.38878761  0.26512303  0.50634357     0.18700
H1104       H  0.33198776  0.12398747  0.57814709     0.18700
C1105       C  0.04723604  0.36314275  0.77602701    -0.07100
C1106       C  0.00334260  0.34069217  0.75824379    -0.18200
C1107       C  0.95457060  0.31812097  0.77098490     0.10100
C1108       C  0.94879453  0.31492719  0.80253451    -0.07000
C1109       C  0.99264007  0.33956686  0.82030240    -0.18300
C1110       C  0.04147581  0.36437484  0.80744317     0.10100
S1111       S  0.90185898  0.29633645  0.74532417    -0.33200
S1112       S  0.09439418  0.39423341  0.83281725    -0.33200
H1113       H  0.12869565  0.43121948  0.81313200     0.28100
H1114       H  0.86399126  0.28809573  0.76600976     0.28100
H1115       H  0.00707637  0.34093308  0.73414277     0.18700
H1116       H  0.98894374  0.33804804  0.84442242     0.18700
C1117       C  0.30879431  0.35888663  0.72698246    -0.07100
C1118       C  0.27553014  0.30882159  0.71769247    -0.18200
C1119       C  0.29144518  0.28248394  0.69917511     0.10100
C1120       C  0.34287758  0.30548328  0.69009310    -0.07000
C1121       C  0.37621035  0.35615918  0.69830773    -0.18300
C1122       C  0.35971599  0.38326077  0.71638886     0.10100
S1123       S  0.24486069  0.21946429  0.68673259    -0.33200
S1124       S  0.40452816  0.44795860  0.72645821    -0.33200
H1125       H  0.44509746  0.45325374  0.70869799     0.28100
H1126       H  0.20133324  0.21928552  0.69754032     0.28100
H1127       H  0.23606124  0.29018575  0.72451983     0.18700
H1128       H  0.41572581  0.37374623  0.69164565     0.18700
C1129       C  0.20749243  0.38523967  0.84770889    -0.07100
C1130       C  0.20467993  0.42545257  0.86022353    -0.18200
C1131       C  0.19273168  0.42566051  0.89018008     0.10100
C1132       C  0.18659688  0.38557664  0.90883926    -0.07000
C1133       C  0.19151164  0.34595386  0.89633881    -0.18300
C1134       C  0.20144609  0.34513828  0.86582650     0.10100
S1135       S  0.18671548  0.47841677  0.90339490    -0.33200
S1136       S  0.20656593  0.29266834  0.85164267    -0.33200
H1137       H  0.23431956  0.31640523  0.82572912     0.28100
H1138       H  0.18412597  0.49751735  0.87529663     0.28100
H1139       H  0.21016986  0.45630913  0.84601674     0.18700
H1140       H  0.18749203  0.31539013  0.91036249     0.18700
C1141       C  0.18624800  0.36325834  0.59763193    -0.07100
C1142       C  0.22784514  0.37552970  0.61645039    -0.18200
C1143       C  0.22448319  0.37902179  0.64730514     0.10100
C1144       C  0.17744203  0.36714552  0.66042897    -0.07000
C1145       C  0.13470436  0.35102356  0.64203431    -0.18300
C1146       C  0.13859338  0.34916708  0.61089903     0.10100
S1147       S  0.28351380  0.40427972  0.66757651    -0.33200
S1148       S  0.08248065  0.33289044  0.58957746    -0.33200
H1149       H  0.10666614  0.38008821  0.57527496     0.28100
H1150       H  0.27212334  0.42980304  0.68938542     0.28100
H1151       H  0.26465441  0.38605659  0.60693942     0.18700
H1152       H  0.09851606  0.34192072  0.65190128     0.18700
C1153       C  0.04245598  0.36089607  0.52046756    -0.07100
C1154       C  0.03361122  0.38670786  0.54373927    -0.18200
C1155       C  0.99042331  0.36192730  0.56233481     0.10100
C1156       C  0.95427128  0.31029259  0.55740373    -0.07000
C1157       C  0.96166782  0.28569649  0.53305054    -0.18300
C1158       C  0.00400752  0.31047832  0.51421684     0.10100
S1159       S  0.98604145  0.39695495  0.59347645    -0.33200
S1160       S  0.00544954  0.27608539  0.48178193    -0.33200
H1161       H  0.02869661  0.32402350  0.96342366     0.28100
H1162       H  0.96343576  0.35557869  0.61308345     0.28100
H1163       H  0.06234265  0.42531966  0.54898492     0.18700
H1164       H  0.93329706  0.24691106  0.52809992     0.18700
C1165       C  0.34610980  0.30905941  0.94133924    -0.07100
C1166       C  0.30557952  0.27858465  0.96048928    -0.18200
C1167       C  0.28597393  0.29909434  0.98098726     0.10100
C1168       C  0.30521133  0.35207183  0.98191227    -0.07000
C1169       C  0.34663217  0.38284029  0.96312148    -0.18300
C1170       C  0.36714089  0.36211310  0.94304973     0.10100
S1171       S  0.23757259  0.25490126  0.00595688    -0.33200
S1172       S  0.41803371  0.40526505  0.91904996    -0.33200
H1173       H  0.40195974  0.37277782  0.89408371     0.28100
H1174       H  0.25809267  0.28623528  0.03126867     0.28100
H1175       H  0.28994005  0.23803430  0.96032001     0.18700
H1176       H  0.36196119  0.42334171  0.96310833     0.18700
C1177       C  0.64019064  0.95816736  0.88641093    -0.07100
C1178       C  0.64902091  0.95876966  0.85532962    -0.18200
C1179       C  0.66765488  0.00284249  0.83820750     0.10100
C1180       C  0.67928428  0.04874097  0.85209810    -0.07000
C1181       C  0.66843174  0.04802538  0.88282673    -0.18300
C1182       C  0.64818005  0.00340126  0.89988541     0.10100
S1183       S  0.68120373  0.99934273  0.79941937    -0.33200
S1184       S  0.63862197  0.00795414  0.93915989    -0.33200
H1185       H  0.58783902  0.96800953  0.93846181     0.28100
H1186       H  0.65926069  0.02775571  0.78990877     0.28100
H1187       H  0.64313179  0.92474799  0.84422662     0.18700
H1188       H  0.67789446  0.08306560  0.89400894     0.18700
C1189       C  0.65059678  0.69537300  0.92988242    -0.07100
C1190       C  0.62451965  0.66052906  0.95284481    -0.18200
C1191       C  0.64801742  0.63915934  0.96994530     0.10100
C1192       C  0.69984794  0.65421294  0.96487110    -0.07000
C1193       C  0.72475073  0.68784406  0.94093311    -0.18300
C1194       C  0.70081504  0.70765520  0.92344679     0.10100
S1195       S  0.60686030  0.59116620  0.49694805    -0.33200
S1196       S  0.73727465  0.75047478  0.89380464    -0.33200
H1197       H  0.69513888  0.73987152  0.87572662     0.28100
H1198       H  0.61903171  0.55540838  0.48604868     0.28100
H1199       H  0.58619416  0.65143339  0.95827504     0.18700
H1200       H  0.76397044  0.69975714  0.93570011     0.18700
C1201       C  0.43782257  0.66408878  0.95870729    -0.07100
C1202       C  0.39135184  0.65737560  0.94774272    -0.18200
C1203       C  0.34567962  0.61093293  0.95060856     0.10100
C1204       C  0.34651112  0.56955985  0.96386167    -0.07000
C1205       C  0.39357403  0.57623616  0.97367787    -0.18300
C1206       C  0.43839542  0.62290251  0.97213219     0.10100
S1207       S  0.28788680  0.60742514  0.93776299    -0.33200
S1208       S  0.49459745  0.62807930  0.98920943    -0.33200
H1209       H  0.51814027  0.68001349  0.99582437     0.28100
H1210       H  0.26018061  0.58431404  0.96381638     0.28100
H1211       H  0.39068894  0.68834413  0.93655074     0.18700
H1212       H  0.39489754  0.54536090  0.98459253     0.18700
C1213       C  0.65261844  0.96189275  0.63943806    -0.07100
C1214       C  0.61948359  0.97655641  0.62710800    -0.18200
C1215       C  0.63821939  0.02095165  0.60975878     0.10100
C1216       C  0.69117495  0.05074642  0.60415364    -0.07000
C1217       C  0.72394930  0.03684052  0.61773045    -0.18300
C1218       C  0.70561045  0.99400393  0.63565959     0.10100
S1219       S  0.59395123  0.03680241  0.59319179    -0.33200
S1220       S  0.75221330  0.98249070  0.65328640    -0.33200
H1221       H  0.72234997  0.95812897  0.67852250     0.28100
H1222       H  0.55001866  0.99891463  0.60740178     0.28100
H1223       H  0.57885824  0.95184212  0.62974443     0.18700
H1224       H  0.76473356  0.06005883  0.61474427     0.18700
C1225       C  0.68592484  0.64949096  0.72910092    -0.07100
C1226       C  0.68176475  0.64105115  0.69802036    -0.18200
C1227       C  0.66132796  0.66299204  0.67912832     0.10100
C1228       C  0.64467231  0.69458800  0.69142926    -0.07000
C1229       C  0.64643295  0.70072749  0.72279048    -0.18300
C1230       C  0.66706693  0.67904476  0.74161032     0.10100
S1231       S  0.66246460  0.65384071  0.63950747    -0.33200
S1232       S  0.66972024  0.69187319  0.78114640    -0.33200
H1233       H  0.66858051  0.64758854  0.79054841     0.28100
H1234       H  0.61041845  0.63709699  0.63574518     0.28100
H1235       H  0.69672771  0.61891191  0.68821210     0.18700
H1236       H  0.63283056  0.72404101  0.73274559     0.18700
C1237       C  0.42994892  0.65450033  0.69013979    -0.07100
C1238       C  0.38514659  0.65721839  0.69241622    -0.18200
C1239       C  0.33757773  0.61381229  0.69726252     0.10100
C1240       C  0.33391896  0.56610257  0.69892578    -0.07000
C1241       C  0.37794181  0.56299140  0.69531353    -0.18300
C1242       C  0.42571222  0.60619200  0.69206586     0.10100
S1243       S  0.28381176  0.62209382  0.70416511    -0.33200
S1244       S  0.47943159  0.59633950  0.69330425    -0.33200
H1245       H  0.50709740  0.63602435  0.71374391     0.28100
H1246       H  0.24720818  0.57493913  0.69247368     0.28100
H1247       H  0.38708375  0.69342539  0.69079877     0.18700
H1248       H  0.37572491  0.52678209  0.69817683     0.18700
C1249       C  0.62058302  0.83406320  0.75577035    -0.07100
C1250       C  0.58333096  0.83431580  0.77407187    -0.18200
C1251       C  0.58102891  0.82483516  0.80462083     0.10100
C1252       C  0.61599881  0.81295911  0.81801042    -0.07000
C1253       C  0.65624557  0.81694877  0.80040737    -0.18300
C1254       C  0.65914332  0.82777899  0.76942223     0.10100
S1255       S  0.53179331  0.82856384  0.82496727    -0.33200
S1256       S  0.71031171  0.83061384  0.74749489    -0.33200
H1257       H  0.73548087  0.82200448  0.77112595     0.28100
H1258       H  0.56106069  0.84892647  0.85097134     0.28100
H1259       H  0.55452882  0.84083164  0.76426721     0.18700
H1260       H  0.68393396  0.80930095  0.81060767     0.18700
C1261       C  0.65226966  0.83676124  0.50618375    -0.07100
C1262       C  0.64692653  0.79003976  0.51431526    -0.18200
C1263       C  0.64750482  0.77740487  0.54438910     0.10100
C1264       C  0.65387419  0.81221269  0.56715381    -0.07000
C1265       C  0.66381732  0.86060458  0.55889684    -0.18300
C1266       C  0.66281228  0.87308133  0.52877140     0.10100
S1267       S  0.63501968  0.71451972  0.55247837    -0.33200
S1268       S  0.66943737  0.93365977  0.52079053    -0.33200
H1269       H  0.68803950  0.93676406  0.98940882     0.28100
H1270       H  0.65706110  0.72585123  0.58116008     0.28100
H1271       H  0.63807932  0.76152848  0.49725464     0.18700
H1272       H  0.66764569  0.88728010  0.57612661     0.18700
C1273       C  0.03726134  0.69377645  0.80678324    -0.07100
C1274       C  0.03607949  0.71359408  0.77844468    -0.18200
C1275       C  0.99364184  0.69054836  0.75961107     0.10100
C1276       C  0.94936118  0.64662716  0.76900451    -0.07000
C1277       C  0.95093149  0.62440181  0.79629363    -0.18300
C1278       C  0.99455204  0.64686649  0.81491644     0.10100
S1279       S  0.99874335  0.71920664  0.72363204    -0.33200
S1280       S  0.99230075  0.61495517  0.84899927    -0.33200
H1281       H  0.03872436  0.61688001  0.84353919     0.28100
H1282       H  0.96576434  0.67377254  0.70862255     0.28100
H1283       H  0.06883708  0.74802256  0.77055152     0.18700
H1284       H  0.91733037  0.59023083  0.80368899     0.18700
C1285       C  0.30287263  0.95688959  0.86656708    -0.07100
C1286       C  0.28675536  0.96113566  0.89547185    -0.18200
C1287       C  0.31112986  0.00603743  0.91206760     0.10100
C1288       C  0.35348970  0.04891710  0.89993605    -0.07000
C1289       C  0.37245920  0.04422330  0.87205001    -0.18300
C1290       C  0.34720312  0.99911715  0.85506565     0.10100
S1291       S  0.28795696  0.00777169  0.94899370    -0.33200
S1292       S  0.37068278  0.99955683  0.81811123    -0.33200
H1293       H  0.32223649  0.97601420  0.80463234     0.28100
H1294       H  0.24769673  0.95739641  0.94980809     0.28100
H1295       H  0.25367094  0.92910538  0.90504150     0.18700
H1296       H  0.40488630  0.07706000  0.86238972     0.18700
C1297       C  0.42323811  0.77760330  0.88884407    -0.07100
C1298       C  0.41786548  0.81812881  0.89943528    -0.18200
C1299       C  0.37136997  0.81721668  0.89801599     0.10100
C1300       C  0.32835722  0.77487297  0.88560748    -0.07000
C1301       C  0.33255632  0.73318389  0.87639317    -0.18300
C1302       C  0.37930698  0.73425978  0.87748299     0.10100
S1303       S  0.36732931  0.87050004  0.91216640    -0.33200
S1304       S  0.38038268  0.68016512  0.86253630    -0.33200
H1305       H  0.42487389  0.70930312  0.84572730     0.28100
H1306       H  0.41675413  0.89757886  0.92423081     0.28100
H1307       H  0.45034247  0.85101611  0.90907550     0.18700
H1308       H  0.30003748  0.70086561  0.86621934     0.18700
C1309       C  0.23371790  0.57154576  0.79935215    -0.07100
C1310       C  0.18663315  0.56433043  0.80863744    -0.18200
C1311       C  0.17857192  0.60506673  0.81281357     0.10100
C1312       C  0.21920477  0.65553144  0.80836559    -0.07000
C1313       C  0.26706996  0.66252613  0.80015484    -0.18300
C1314       C  0.27455347  0.62136203  0.79545373     0.10100
S1315       S  0.11459073  0.58858788  0.82269964    -0.33200
S1316       S  0.33620814  0.63462246  0.78250720    -0.33200
H1317       H  0.33327141  0.59092862  0.79453412     0.28100
H1318       H  0.10936121  0.61466409  0.79837757     0.28100
H1319       H  0.15459623  0.52616092  0.81052678     0.18700
H1320       H  0.29903658  0.70037497  0.79708649     0.18700
C1321       C  0.04246030  0.68391265  0.56544281    -0.07100
C1322       C  0.04328184  0.67416829  0.53471308    -0.18200
C1323       C  0.99855197  0.65155199  0.51740386     0.10100
C1324       C  0.95179425  0.63942060  0.53088626    -0.07000
C1325       C  0.95071304  0.64511614  0.56218186    -0.18300
C1326       C  0.99519474  0.66621676  0.57954335     0.10100
S1327       S  0.00949526  0.65419356  0.97471034    -0.33200
S1328       S  0.98999415  0.67413033  0.61901432    -0.33200
H1329       H  0.02640555  0.66099321  0.62727678     0.28100
H1330       H  0.97670363  0.67236342  0.96720656     0.28100
H1331       H  0.07955880  0.68732183  0.52370064     0.18700
H1332       H  0.91495452  0.63467758  0.57314410     0.18700
C1333       C  0.31091672  0.95451616  0.61112612    -0.07100
C1334       C  0.30751134  0.95545319  0.64256951    -0.18200
C1335       C  0.32990541  0.00092801  0.65884638     0.10100
C1336       C  0.35796854  0.04713458  0.64363809    -0.07000
C1337       C  0.36492135  0.04605525  0.61252796    -0.18300
C1338       C  0.34257034  0.00041724  0.59629145     0.10100
S1339       S  0.31720721  0.99754146  0.69839720    -0.33200
S1340       S  0.35223498  0.00347796  0.55656021    -0.33200
H1341       H  0.36625046  0.96618937  0.55635870     0.28100
H1342       H  0.30959858  0.03914343  0.69938043     0.28100
H1343       H  0.28449888  0.92037566  0.65445532     0.18700
H1344       H  0.38640682  0.08135681  0.60056247     0.18700
C1345       C  0.43868383  0.77365371  0.61121255    -0.07100
C1346       C  0.39252752  0.73072560  0.61934578    -0.18200
C1347       C  0.34676418  0.73158272  0.62013843     0.10100
C1348       C  0.34658262  0.77643140  0.61246513    -0.07000
C1349       C  0.39262140  0.81807932  0.60246827    -0.18300
C1350       C  0.43781275  0.81676918  0.60115723     0.10100
S1351       S  0.29080075  0.67461426  0.63197714    -0.33200
S1352       S  0.49344549  0.87167517  0.58649935    -0.33200
H1353       H  0.51815112  0.84561344  0.57708338     0.28100
H1354       H  0.27725826  0.69966014  0.65328788     0.28100
H1355       H  0.39261862  0.69738076  0.62727754     0.27100
H1356       H  0.39367436  0.85217616  0.59496964     0.18700
C1357       C  0.22821430  0.56655397  0.55443052    -0.07100
C1358       C  0.18033169  0.56264871  0.55625578    -0.18200
C1359       C  0.17468916  0.60518211  0.55432982     0.10100
C1360       C  0.21834516  0.65433417  0.55241226    -0.07000
C1361       C  0.26656334  0.65836092  0.55205889    -0.18300
C1362       C  0.27182124  0.61531946  0.55281931     0.10100
S1363       S  0.11016237  0.59297380  0.55199978    -0.33200
S1364       S  0.33507606  0.62472653  0.54940993    -0.33200
H1365       H  0.32379533  0.57903000  0.56310509     0.28100
H1366       H  0.12132563  0.63016211  0.53022350     0.28100
H1367       H  0.14643083  0.52546417  0.55573392     0.18700
H1368       H  0.30062679  0.69532400  0.55146635     0.18700
C1369       C  0.16836103  0.81933755  0.93149271    -0.07100
C1370       C  0.21974027  0.84287334  0.94020145    -0.18200
C1371       C  0.23453943  0.85417030  0.97006051     0.10100
C1372       C  0.19722460  0.84025362  0.99243872    -0.07000
C1373       C  0.14617063  0.82115838  0.98370043    -0.18300
C1374       C  0.13145745  0.81114343  0.95335027     0.10100
S1375       S  0.30157796  0.88338399  0.97847124    -0.33200
S1376       S  0.06496643  0.78353187  0.94437278    -0.33200
H1377       H  0.07262892  0.80371959  0.91546115     0.28100
H1378       H  0.28867675  0.91368053  0.50514277     0.28100
H1379       H  0.24861349  0.84992132  0.92364071     0.18700
H1380       H  0.11712783  0.81046441  0.00066887     0.18700
C1381       C  0.18493087  0.81675198  0.74524182    -0.07100
C1382       C  0.18692581  0.85501741  0.72689894    -0.18200
C1383       C  0.17682343  0.84684856  0.69575983     0.10100
C1384       C  0.16543369  0.79993533  0.68293342    -0.07000
C1385       C  0.15860522  0.76087531  0.70187639    -0.18300
C1386       C  0.16746234  0.76831762  0.73243443     0.10100
S1387       S  0.18124700  0.89688219  0.67253639    -0.33200
S1388       S  0.15677034  0.71372164  0.75335551    -0.33200
H1389       H  0.14219243  0.72804645  0.77950208     0.28100
H1390       H  0.19109093  0.93170412  0.69577553     0.28100
H1391       H  0.19895523  0.89178906  0.73658095     0.18700
H1392       H  0.14815821  0.72419801  0.69248178     0.18700
loop_ 
_geom_bond_atom_site_label_1 
_geom_bond_atom_site_label_2 
_geom_bond_distance 
_geom_bond_site_symmetry_2 
_ccdc_geom_bond_type 
O1          Cr19   2.031       .  S
O1            C9   1.271       .  A
O2          Cr19   1.963       .  S
O2            C3   1.255       .  A
C3            O4   1.271       .  A
C3          C625   1.484       .  S
O4          Cr20   2.030       .  S
O5          Cr20   1.944       .  S
O5            C6   1.251       .  A
C6            O7   1.276       .  A
C6          C664   1.495       .  S
O7          Cr21   2.061       .  S
O8          Cr21   1.964       .  S
O8            C9   1.260       .  A
C9         C1372   1.485   1_554  S
O10         Cr19   1.961       .  S
O10          C18   1.256       .  A
O11         Cr19   2.036       .  S
O11          C12   1.272       .  A
C12          O13   1.258       .  A
C12         C688   1.486       .  S
O13         Cr20   1.952       .  S
O14         Cr20   2.046       .  S
O14          C15   1.270       .  A
C15          O16   1.253       .  A
C15         C652   1.495       .  S
O16         Cr21   1.952       .  S
O17         Cr21   2.042       .  S
O17          C18   1.274       .  A
C18         C637   1.494       .  S
Cr19         O22   1.769       .  S
Cr20         O22   1.764       .  S
Cr21         O22   1.762       .  S
O23         Cr41   2.034       .  S
O23          C31   1.273       .  A
O24         Cr41   1.937       .  S
O24          C25   1.251       .  A
C25          O26   1.274       .  A
C25         C577   1.505       .  S
O26         Cr42   2.051       .  S
O27         Cr42   1.954       .  S
O27          C28   1.255       .  A
C28          O29   1.274       .  A
C28         C616   1.499       .  S
O29         Cr43   2.047       .  S
O30         Cr43   1.963       .  S
O30          C31   1.259       .  A
C31         C685   1.491       .  S
O32         Cr41   1.942       .  S
O32          C40   1.250       .  A
O33         Cr41   2.030       .  S
O33          C34   1.271       .  A
C34          O35   1.255       .  A
C34         C673   1.483       .  S
O35         Cr42   1.956       .  S
O36         Cr42   2.039       .  S
O36          C37   1.272       .  A
C37          O38   1.257       .  A
C37         C604   1.477       .  S
O38         Cr43   1.955       .  S
O39         Cr43   2.052       .  S
O39          C40   1.273       .  A
C40         C589   1.505       .  S
Cr41         O44   1.777       .  S
Cr42         O44   1.778       .  S
Cr43         O44   1.774       .  S
O45         Cr63   2.039       .  S
O45          C53   1.275       .  A
O46         Cr63   1.947       .  S
O46          C47   1.251       .  A
C47          O48   1.270       .  A
C47         C517   1.483       .  S
O48         Cr64   2.037       .  S
O49         Cr64   1.949       .  S
O49          C50   1.255       .  A
C50          O51   1.272       .  A
C50         C649   1.478       .  S
O51         Cr65   2.044       .  S
O52         Cr65   1.962       .  S
O52          C53   1.257       .  A
C53         C568   1.488       .  S
O54         Cr63   1.946       .  S
O54          C62   1.250       .  A
O55         Cr63   2.042       .  S
O55          C56   1.274       .  A
C56          O57   1.258       .  A
C56         C553   1.494       .  S
O57         Cr64   1.949       .  S
O58         Cr64   2.041       .  S
O58          C59   1.272       .  A
C59          O60   1.253       .  A
C59         C541   1.491       .  S
O60         Cr65   1.950       .  S
O61         Cr65   2.040       .  S
O61          C62   1.273       .  A
C62         C532   1.494       .  S
Cr63         O66   1.769       .  S
Cr64         O66   1.767       .  S
Cr65         O66   1.774       .  S
O67         Cr85   2.029       .  S
O67          C75   1.271       .  A
O68         Cr85   1.971       .  S
O68          C69   1.253       .  A
C69          O70   1.273       .  A
C69         C481   1.495       .  S
O70         Cr86   2.045       .  S
O71         Cr86   1.956       .  S
O71          C72   1.259       .  A
C72          O73   1.272       .  A
C72         C601   1.493       .  S
O73         Cr87   2.043       .  S
O74         Cr87   1.961       .  S
O74          C75   1.259       .  A
C75         C556   1.493       .  S
O76         Cr85   1.964       .  S
O76          C84   1.254       .  A
O77         Cr85   2.036       .  S
O77          C78   1.274       .  A
C78          O79   1.258       .  A
C78        C1261   1.484       .  S
O79         Cr86   1.964       .  S
O80         Cr86   2.040       .  S
O80          C81   1.270       .  A
C81          O82   1.254       .  A
C81         C505   1.475       .  S
O82         Cr87   1.954       .  S
O83         Cr87   2.031       .  S
O83          C84   1.270       .  A
C84         C493   1.485       .  S
Cr85         O88   1.774       .  S
Cr86         O88   1.773       .  S
Cr87         O88   1.773       .  S
O89        Cr803   1.986       .  S
O89          C97   1.260       .  A
O90        Cr803   2.003       .  S
O90          C91   1.263       .  A
C91         O788   1.265       .  A
C91         C472   1.503       .  S
O92        Cr108   2.016       .  S
O92         C787   1.266   1_554  A
O93        Cr804   1.953       .  S
O93          C94   1.255       .  A
C94          O95   1.272       .  A
C94         C508   1.479       .  S
O95        Cr109   2.023       .  S
O96        Cr109   1.988       .  S
O96          C97   1.259       .  A
C97         C436   1.477       .  S
O98        Cr107   2.000   1_556  S
O98         C106   1.264   1_556  A
O99        Cr107   1.983       .  S
O99         C100   1.260       .  A
C100        O101   1.266       .  A
C100        C445   1.483       .  S
O101       Cr108   1.991       .  S
O102       Cr108   2.024       .  S
O102        C103   1.274       .  A
C103        O104   1.254       .  A
C103        C661   1.472       .  S
O104       Cr805   1.955   1_554  S
O105       Cr109   2.009       .  S
O105        C802   1.266       .  A
C106        O801   1.265       .  A
C106        C457   1.501       .  S
Cr107       O785   1.983   1_554  S
Cr107       O786   1.998       .  S
Cr107       O110   1.776       .  S
Cr108       O789   1.957       .  S
Cr108       O110   1.762       .  S
Cr109       O800   1.959       .  S
Cr109       O806   1.768       .  S
O110       Cr805   1.767   1_554  S
O111       Cr129   1.967       .  S
O111        C119   1.256       .  A
O112       Cr129   2.005       .  S
O112        C113   1.265       .  A
C113        O114   1.262       .  A
C113        C421   1.501       .  S
O114       Cr130   2.005       .  S
O115       Cr130   1.968       .  S
O115        C116   1.257       .  A
C116        O117   1.266       .  A
C116        C544   1.466       .  S
O117       Cr131   1.998       .  S
O118       Cr131   2.011       .  S
O118        C119   1.266       .  A
C119        C448   1.469       .  S
O120       Cr129   2.017       .  S
O120        C128   1.267       .  A
O121       Cr129   1.966       .  S
O121        C122   1.258       .  A
C122        O123   1.264       .  A
C122        C433   1.458       .  S
O123       Cr130   2.002       .  S
O124       Cr130   2.007       .  S
O124        C125   1.270       .  A
C125        O126   1.260       .  A
C125        C613   1.471       .  S
O126       Cr131   1.979       .  S
O127       Cr131   1.996       .  S
O127        C128   1.261       .  A
C128        C409   1.491       .  S
Cr129       O132   1.781       .  S
Cr130       O132   1.772       .  S
Cr131       O132   1.775       .  S
O133       Cr151   2.013       .  S
O133        C141   1.267       .  A
O134       Cr151   1.960       .  S
O134        C135   1.253       .  A
C135        O136   1.274       .  A
C135        C640   1.488       .  S
O136       Cr152   2.044       .  S
O137       Cr152   1.950       .  S
O137        C138   1.255       .  A
C138        O139   1.275       .  A
C138        C364   1.497       .  S
O139       Cr153   2.054       .  S
O140       Cr153   1.954       .  S
O140        C141   1.257       .  A
C141        C400   1.463       .  S
O142       Cr151   1.954       .  S
O142        C150   1.256       .  A
O143       Cr151   2.030       .  S
O143        C144   1.271       .  A
C144        O145   1.256       .  A
C144        C385   1.475       .  S
O145       Cr152   1.954       .  S
O146       Cr152   2.046       .  S
O146        C147   1.271       .  A
C147        O148   1.252       .  A
C147        C376   1.491       .  S
O148       Cr153   1.947       .  S
O149       Cr153   2.040       .  S
O149        C150   1.273       .  A
C150        C424   1.489       .  S
Cr151       O154   1.765       .  S
Cr152       O154   1.768       .  S
Cr153       O154   1.763       .  S
O155       Cr173   1.966       .  S
O155        C163   1.254       .  A
O156       Cr173   2.014       .  S
O156        C157   1.267       .  A
C157        O158   1.262       .  A
C157        C469   1.500       .  S
O158       Cr174   2.004       .  S
O159       Cr174   1.972       .  S
O159        C160   1.259       .  A
C160        O161   1.268       .  A
C160        C349   1.465       .  S
O161       Cr175   1.999       .  S
O162       Cr175   2.019       .  S
O162        C163   1.267       .  A
C163       C1093   1.473       .  S
O164       Cr173   2.011       .  S
O164        C172   1.267       .  A
O165       Cr173   1.980       .  S
O165        C166   1.258       .  A
C166        O167   1.269       .  A
C166        C388   1.496       .  S
O167       Cr174   2.008       .  S
O168       Cr174   2.012       .  S
O168        C169   1.271       .  A
C169        O170   1.259       .  A
C169        C340   1.477       .  S
O170       Cr175   1.977       .  S
O171       Cr175   1.999       .  S
O171        C172   1.260       .  A
C172        C592   1.494       .  S
Cr173       O176   1.780       .  S
Cr174       O176   1.773       .  S
Cr175       O176   1.776       .  S
O177       Cr195   1.992       .  S
O177        C185   1.260       .  A
O178       Cr195   2.006       .  S
O178        C179   1.265       .  A
C179        O180   1.260       .  A
C179        C460   1.495       .  S
O180       Cr196   1.999       .  S
O181       Cr196   1.986       .  S
O181        C182   1.265       .  A
C182        O183   1.271       .  A
C182        C301   1.472       .  S
O183       Cr197   1.999       .  S
O184       Cr197   2.004       .  S
O184        C185   1.266       .  A
C185       C1009   1.489   1_554  S
O186       Cr195   2.004       .  S
O186        C194   1.267       .  A
O187       Cr195   1.979       .  S
O187        C188   1.258       .  A
C188        O189   1.268       .  A
C188        C325   1.480       .  S
O189       Cr196   2.020       .  S
O190       Cr196   2.007       .  S
O190        C191   1.266       .  A
C191        O192   1.254       .  A
C191        C361   1.466       .  S
O192       Cr197   1.963       .  S
O193       Cr197   1.996       .  S
O193        C194   1.260       .  A
C194        C520   1.492       .  S
Cr195       O198   1.780       .  S
Cr196       O198   1.775       .  S
Cr197       O198   1.775       .  S
O199       Cr217   2.037       .  S
O199        C207   1.273       .  A
O200       Cr217   1.965       .  S
O200        C201   1.254       .  A
C201        O202   1.273       .  A
C201        C412   1.495       .  S
O202       Cr218   2.046       .  S
O203       Cr218   1.936       .  S
O203        C204   1.249       .  A
C204        O205   1.278       .  A
C204        C289   1.490       .  S
O205       Cr219   2.065       .  S
O206       Cr219   1.958       .  S
O206        C207   1.258       .  A
C207        C328   1.486       .  S
O208       Cr217   1.950       .  S
O208        C216   1.253       .  A
O209       Cr217   2.036       .  S
O209        C210   1.275       .  A
C210        O211   1.255       .  A
C210        C316   1.489       .  S
O211       Cr218   1.943       .  S
O212       Cr218   2.066       .  S
O212        C213   1.276       .  A
C213        O214   1.249       .  A
C213        C337   1.499       .  S
O214       Cr219   1.939       .  S
O215       Cr219   2.057       .  S
O215        C216   1.277       .  A
C216        C484   1.507       .  S
Cr217       O220   1.770       .  S
Cr218       O220   1.772       .  S
Cr219       O220   1.767       .  S
O221       Cr239   2.036       .  S
O221        C229   1.274       .  A
O222       Cr239   1.947       .  S
O222        C223   1.254       .  A
C223        O920   1.276       .  A
C223        C496   1.510       .  S
O224       Cr240   2.049       .  S
O224        C919   1.275   1_554  A
O225       Cr936   1.948       .  S
O225        C226   1.250       .  A
C226        O227   1.272       .  A
C226        C352   1.496       .  S
O227       Cr241   2.055       .  S
O228       Cr241   1.960       .  S
O228        C229   1.258       .  A
C229        C265   1.480       .  S
O230       Cr935   1.953   1_554  S
O230        C238   1.253       .  A
O231       Cr935   2.033   1_554  S
O231        C232   1.273       .  A
C232        O233   1.258       .  A
C232        C280   1.489       .  S
O233       Cr240   1.958       .  S
O234       Cr240   2.063       .  S
O234        C235   1.277       .  A
C235        O236   1.256       .  A
C235        C304   1.498       .  S
O236       Cr937   1.947   1_554  S
O237       Cr241   2.041       .  S
O237        C934   1.274       .  A
C238        O933   1.274   1_554  A
C238        C628   1.490       .  S
Cr239       O926   1.952       .  S
Cr239       O927   2.031       .  S
Cr239       O242   1.763       .  S
Cr240       O921   1.951   1_554  S
Cr240       O938   1.759   1_554  S
Cr241       O932   1.945       .  S
Cr241       O242   1.766       .  S
O242       Cr936   1.759       .  S
O243       Cr261   1.994       .  S
O243        C251   1.260       .  A
O244       Cr261   2.009       .  S
O244        C245   1.264       .  A
C245        O246   1.259       .  A
C245        C529   1.484       .  S
O246       Cr262   1.992       .  S
O247       Cr262   1.968       .  S
O247        C248   1.258       .  A
C248        O249   1.269       .  A
C248        C373   1.463       .  S
O249       Cr263   2.000       .  S
O250       Cr263   2.011       .  S
O250        C251   1.264       .  A
C251        C277   1.481       .  S
O252       Cr261   2.008       .  S
O252        C260   1.267       .  A
O253       Cr261   1.997       .  S
O253        C254   1.263       .  A
C254        O255   1.267       .  A
C254        C268   1.498       .  S
O255       Cr262   2.010       .  S
O256       Cr262   2.011       .  S
O256        C257   1.271       .  A
C257        O258   1.257       .  A
C257        C292   1.471       .  S
O258       Cr263   1.967       .  S
O259       Cr263   1.992       .  S
O259        C260   1.260       .  A
C260        C580   1.487       .  S
Cr261       O264   1.779       .  S
Cr262       O264   1.768       .  S
Cr263       O264   1.772       .  S
C265        C266   1.401       .  A
C265        C270   1.407       .  A
C266        C267   1.399       .  A
C266        H275   1.084       .  S
C267        C268   1.418       .  A
C267        S271   1.803       .  S
C268        C269   1.413       .  A
C269        C270   1.413       .  A
C269        H276   1.083       .  S
C270        S272   1.802       .  S
S271        H274   1.407       .  S
S272        H273   1.407       .  S
C277        C278   1.400       .  A
C277        C282   1.414       .  A
C278        C279   1.398       .  A
C278        H287   1.082       .  S
C279        C280   1.415       .  A
C279        S283   1.805       .  S
C280        C281   1.409       .  A
C281        C282   1.411       .  A
C281        H288   1.084       .  S
C282        S284   1.803       .  S
S283        H286   1.408       .  S
S284        H285   1.405       .  S
C289        C290   1.408       .  A
C289        C294   1.420       .  A
C290        C291   1.408       .  A
C290        H299   1.083       .  S
C291        C292   1.414       .  A
C291        S295   1.801       .  S
C292        C293   1.400       .  A
C293        C294   1.395       .  A
C293        H300   1.085       .  S
C294        S296   1.804       .  S
S295        H298   1.405       .  S
S296        H297   1.406       .  S
C301        C302   1.405       .  A
C301        C306   1.406       .  A
C302        C303   1.409       .  A
C302        H311   1.084       .  S
C303        C304   1.421       .  A
C303        S307   1.800       .  S
C304        C305   1.412       .  A
C305        C306   1.395       .  A
C305        H312   1.083       .  S
C306        S308   1.806       .  S
S307        H310   1.407       .  S
S308        H309   1.407       .  S
C313        C881   1.487       .  S
C313        C314   1.397       .  A
C313        C318   1.419       .  A
C314        C315   1.387       .  A
C314        H323   1.084       .  S
C315        C316   1.420       .  A
C315        S319   1.800       .  S
C316        C317   1.406       .  A
C317        C318   1.412       .  A
C317        H324   1.083       .  S
C318        S320   1.799       .  S
S319        H322   1.406       .  S
S320       H1017   1.407       .  S
H321       S1016   1.407   1_554  S
C325        C326   1.402       .  A
C325        C330   1.412       .  A
C326        C327   1.399       .  A
C326        H335   1.084       .  S
C327        C328   1.414       .  A
C327        S331   1.804       .  S
C328        C329   1.406       .  A
C329        C330   1.410       .  A
C329        H336   1.083       .  S
C330        S332   1.803       .  S
S331        H334   1.407       .  S
S332        H333   1.406       .  S
C337        C338   1.409       .  A
C337        C342   1.426       .  A
C338        C339   1.408       .  A
C338        H347   1.084       .  S
C339        C340   1.414       .  A
C339        S343   1.802       .  S
C340        C341   1.399       .  A
C341        C342   1.402       .  A
C341        H348   1.083       .  S
C342        S344   1.815       .  S
S343        H346   1.404       .  S
S344        H345   1.406       .  S
C349        C350   1.405       .  A
C349        C354   1.404       .  A
C350        C351   1.405       .  A
C350        H359   1.084       .  S
C351        C352   1.418       .  A
C351        S355   1.800       .  S
C352        C353   1.414       .  A
C353        C354   1.396       .  A
C353       H1056   1.083       .  S
C354       S1052   1.806       .  S
S355        H358   1.408       .  S
S356       C1050   1.805       .  S
S356        H357   1.406       .  S
H360       C1049   1.083       .  S
C361        C362   1.405       .  A
C361        C366   1.400       .  A
C362        C363   1.407       .  A
C362        H371   1.084       .  S
C363        C364   1.417       .  A
C363        S367   1.807       .  S
C364        C365   1.416       .  A
C365        C366   1.401       .  A
C365        H372   1.082       .  S
C366        S368   1.806       .  S
S367        H370   1.407       .  S
S368        H369   1.407       .  S
C373        C374   1.402       .  A
C373        C378   1.406       .  A
C374        C375   1.402       .  A
C374        H383   1.085       .  S
C375        C376   1.419       .  A
C375        S379   1.800       .  S
C376        C377   1.411       .  A
C377        C378   1.395       .  A
C377        H384   1.084       .  S
C378        S380   1.801       .  S
S379        H382   1.408       .  S
S380        H381   1.404       .  S
C385        C386   1.400       .  A
C385        C390   1.410       .  A
C386        C387   1.411       .  A
C386        H395   1.083       .  S
C387        C388   1.425       .  A
C387        S391   1.807       .  S
C388        C389   1.404       .  A
C389        C390   1.396       .  A
C389        H396   1.082       .  S
C390        S392   1.807       .  S
S391        H394   1.407       .  S
S392        H393   1.407       .  S
C397        C859   1.464   1_554  S
C397        C398   1.400       .  A
C397        C402   1.409       .  A
C398        C399   1.394       .  A
C398        H407   1.085       .  S
C399        C400   1.410       .  A
C399        S403   1.804       .  S
C400        C401   1.403       .  A
C401        C402   1.400       .  A
C401        H408   1.084       .  S
C402        S404   1.799       .  S
S403        H406   1.407       .  S
S404       H1101   1.406   1_554  S
H405       S1100   1.406       .  S
C409        C410   1.399       .  A
C409        C414   1.423       .  A
C410        C411   1.402   1_455  A
C410        H419   1.084       .  S
C411        C412   1.419       .  A
C411        S415   1.801       .  S
C412        C413   1.402       .  A
C413        C414   1.411   1_655  A
C413        H420   1.084       .  S
C414        S416   1.803       .  S
S415        H418   1.401       .  S
S416        H417   1.397       .  S
C421        C422   1.408       .  A
C421        C426   1.420       .  A
C422        C423   1.401       .  A
C422        H431   1.082       .  S
C423        C424   1.411       .  A
C423        S427   1.810       .  S
C424        C425   1.406       .  A
C425        C426   1.416       .  A
C425        H432   1.083       .  S
C426        S428   1.806       .  S
S427        H430   1.406       .  S
S428        H429   1.407       .  S
C433        C434   1.393       .  A
C433        C438   1.408       .  A
C434        C435   1.390       .  A
C434        H443   1.081       .  S
C435        C436   1.419       .  A
C435        S439   1.812       .  S
C436        C437   1.409       .  A
C437        C438   1.403       .  A
C437        H444   1.084       .  S
C438        S440   1.804       .  S
S439        H442   1.407       .  S
S440        H441   1.405       .  S
C445        C446   1.402       .  A
C445        C450   1.417       .  A
C446        C447   1.388       .  A
C446        H455   1.084       .  S
C447        C448   1.412       .  A
C447        S451   1.802       .  S
C448        C449   1.402       .  A
C449        C450   1.406       .  A
C449        H456   1.083       .  S
C450        S452   1.803       .  S
S451        H454   1.397       .  S
S452        H453   1.407       .  S
C457        C458   1.411       .  A
C457        C462   1.417       .  A
C458        C459   1.414   1_455  A
C458        H467   1.083       .  S
C459        C460   1.416       .  A
C459        S463   1.801       .  S
C460        C461   1.403       .  A
C461        C462   1.401   1_655  A
C461        H468   1.082       .  S
C462        S464   1.804   1_554  S
S463        H466   1.406       .  S
S464       H1161   1.408       .  S
H465       S1160   1.408       .  S
C469        C470   1.405       .  A
C469        C474   1.414       .  A
C470        C471   1.403       .  A
C470        H479   1.080       .  S
C471        C472   1.416       .  A
C471        S475   1.803       .  S
C472        C473   1.412       .  A
C473        C474   1.419       .  A
C473        H480   1.082       .  S
C474        S476   1.804       .  S
S475        H478   1.408       .  S
S476        H477   1.407       .  S
C481        C482   1.412       .  A
C481        C486   1.408   1_565  A
C482        C483   1.412   1_565  A
C482        H491   1.079       .  S
C483        C484   1.414       .  A
C483        S487   1.798       .  S
C484        C485   1.416       .  A
C485        C486   1.404       .  A
C485        H492   1.084       .  S
C486        S488   1.800       .  S
S487        H490   1.407       .  S
S488        H489   1.404   1_545  S
C493        C494   1.408       .  A
C493        C498   1.406       .  A
C494        C495   1.414       .  A
C494        H503   1.081       .  S
C495        C496   1.420       .  A
C495       S1195   1.798       .  S
C496        C497   1.416       .  A
C497        C498   1.397       .  A
C497        H504   1.083       .  S
C498        S500   1.805       .  S
S499       C1191   1.798       .  S
S499        H502   1.407       .  S
S500        H501   1.407       .  S
C505        C506   1.409       .  A
C505        C510   1.407       .  A
C506        C507   1.406       .  A
C506        H515   1.084       .  S
C507        C508   1.412       .  A
C507        S511   1.800       .  S
C508        C509   1.409       .  A
C509        C510   1.393       .  A
C509        H516   1.085       .  S
C510        S512   1.804       .  S
S511        H514   1.405       .  S
S512        H513   1.407       .  S
C517        C518   1.406       .  A
C517        C522   1.413       .  A
C518        C519   1.415   1_565  A
C518        H527   1.082       .  S
C519        C520   1.418       .  A
C519        S523   1.805       .  S
C520        C521   1.404       .  A
C521        C522   1.394   1_545  A
C521        H528   1.083       .  S
C522        S524   1.806       .  S
S523        H526   1.407       .  S
S524        H525   1.407       .  S
C529        C530   1.408       .  A
C529        C534   1.406       .  A
C530        C531   1.410       .  A
C530        H539   1.078       .  S
C531        C532   1.408       .  A
C531        S535   1.800       .  S
C532        C533   1.412       .  A
C533        C534   1.401       .  A
C533        H540   1.082       .  S
C534        S536   1.803       .  S
S535        H538   1.405       .  S
S536        H537   1.406       .  S
C541        C542   1.409       .  A
C541        C546   1.422       .  A
C542        C543   1.403       .  A
C542        H551   1.083       .  S
C543        C544   1.410       .  A
C543        S547   1.802       .  S
C544        C545   1.399       .  A
C545        C546   1.396       .  A
C545        H552   1.085       .  S
C546        S548   1.805       .  S
S547        H550   1.405       .  S
S548        H549   1.408       .  S
C553        C554   1.402       .  A
C553        C558   1.418       .  A
C554        C555   1.390       .  A
C554        H563   1.085       .  S
C555        C556   1.418       .  A
C555        S559   1.804       .  S
C556        C557   1.409       .  A
C557        C558   1.419       .  A
C557        H564   1.082       .  S
C558        S560   1.804       .  S
S559        H562   1.402       .  S
S560        H561   1.407       .  S
C565        C774   1.488   1_554  S
C565        C566   1.406       .  A
C565        C570   1.414       .  A
C566        C567   1.405       .  A
C566        H575   1.085   1_554  S
C567        C568   1.413       .  A
C567        S571   1.804       .  S
C568        C569   1.408       .  A
C569        C570   1.411       .  A
C569        H576   1.084       .  S
C570        S572   1.803       .  S
S571        H574   1.407       .  S
S572       H1269   1.406   1_554  S
H573       S1268   1.404       .  S
C577        C578   1.416       .  A
C577        C582   1.416   1_455  A
C578        C579   1.396   1_455  A
C578        H587   1.083       .  S
C579        C580   1.406       .  A
C579        S583   1.806   1_655  S
C580        C581   1.411       .  A
C581        C582   1.412       .  A
C581        H588   1.084       .  S
C582        S584   1.797       .  S
S583        H586   1.407   1_455  S
S584        H585   1.405   1_655  S
C589        C590   1.412       .  A
C589        C594   1.417       .  A
C590        C591   1.395   1_565  A
C590        H599   1.082       .  S
C591        C592   1.408       .  A
C591        S595   1.802       .  S
C592        C593   1.413       .  A
C593        C594   1.416   1_545  A
C593        H600   1.084       .  S
C594        S596   1.799       .  S
S595        H598   1.407       .  S
S596        H597   1.407       .  S
C601        C602   1.411       .  A
C601        C606   1.418       .  A
C602        C603   1.399       .  A
C602        H611   1.082       .  S
C603        C604   1.406       .  A
C603        S607   1.809       .  S
C604        C605   1.406       .  A
C605        C606   1.404       .  A
C605        H612   1.084       .  S
C606        S608   1.801       .  S
S607        H610   1.406       .  S
S608        H609   1.407       .  S
C613        C614   1.397       .  A
C613        C618   1.412       .  A
C614        C615   1.399       .  A
C614        H623   1.084       .  S
C615        C616   1.426       .  A
C615        S619   1.802       .  S
C616        C617   1.409       .  A
C617        C618   1.405       .  A
C617        H624   1.083       .  S
C618        S620   1.803       .  S
S619        H622   1.408       .  S
S620        H621   1.405       .  S
C625        C626   1.410       .  A
C625        C630   1.406   1_455  A
C626        C627   1.406       .  A
C626        H635   1.084       .  S
C627        C628   1.412   1_455  A
C627       S1327   1.801   1_554  S
C628        C629   1.412       .  A
C629        C630   1.402       .  A
C629        H636   1.084       .  S
C630        S632   1.799       .  S
S631       C1323   1.800   1_455  S
S631        H634   1.406   1_455  S
S632        H633   1.405   1_655  S
C637        C638   1.412       .  A
C637        C642   1.410   1_565  A
C638        C639   1.405   1_565  A
C638        H647   1.084       .  S
C639        C640   1.410       .  A
C639        S643   1.803   1_545  S
C640        C641   1.411       .  A
C641        C642   1.407       .  A
C641        H648   1.084       .  S
C642        S644   1.798       .  S
S643        H646   1.406   1_565  S
S644        H645   1.406   1_545  S
C649        C650   1.407       .  A
C649        C654   1.409       .  A
C650        C651   1.406       .  A
C650        H659   1.084       .  S
C651        C652   1.418       .  A
C651        S655   1.798       .  S
C652        C653   1.411       .  A
C653        C654   1.394       .  A
C653        H660   1.083       .  S
C654        S656   1.806       .  S
S655        H658   1.408       .  S
S656        H657   1.408       .  S
C661        C662   1.402       .  A
C661        C666   1.414       .  A
C662        C663   1.400       .  A
C662        H671   1.085       .  S
C663        C664   1.422       .  A
C663        S667   1.806       .  S
C664        C665   1.409       .  A
C665        C666   1.407       .  A
C665        H672   1.084       .  S
C666        S668   1.802       .  S
S667        H670   1.408       .  S
S668        H669   1.405       .  S
C673        C674   1.405       .  A
C673        C678   1.415       .  A
C674        C675   1.397       .  A
C674        H683   1.085       .  S
C675        C676   1.410       .  A
C675        S679   1.804       .  S
C676        C705   1.486       .  S
C676        C677   1.410       .  A
C677        C678   1.414       .  A
C677        H684   1.084       .  S
C678        S680   1.804       .  S
S679       H1378   1.407       .  S
S680        H681   1.403       .  S
H682       S1375   1.407   1_554  S
C685        C686   1.409       .  A
C685        C690   1.418       .  A
C686        C687   1.419       .  A
C686        H695   1.082       .  S
C687        C688   1.416       .  A
C687        S691   1.803       .  S
C688        C689   1.397       .  A
C689        C690   1.389       .  A
C689        H696   1.085       .  S
C690        S692   1.801       .  S
S691        H694   1.407       .  S
S692        H693   1.395       .  S
O697       Cr715   2.032       .  S
O697        C705   1.271       .  A
O698       Cr715   1.962       .  S
O698        C699   1.255       .  A
C699        O700   1.270       .  A
C699       C1321   1.481       .  S
O700       Cr716   2.028       .  S
O701       Cr716   1.944       .  S
O701        C702   1.251       .  A
C702        O703   1.277       .  A
C702       C1360   1.495       .  S
O703       Cr717   2.061       .  S
O704       Cr717   1.966       .  S
O704        C705   1.259       .  A
O706       Cr715   1.956       .  S
O706        C714   1.256       .  A
O707       Cr715   2.040       .  S
O707        C708   1.273       .  A
C708        O709   1.260       .  A
C708       C1384   1.488       .  S
O709       Cr716   1.956       .  S
O710       Cr716   2.041       .  S
O710        C711   1.269       .  A
C711        O712   1.254       .  A
C711       C1348   1.497       .  S
O712       Cr717   1.955       .  S
O713       Cr717   2.042       .  S
O713        C714   1.275       .  A
C714       C1333   1.494       .  S
Cr715       O718   1.771       .  S
Cr716       O718   1.764       .  S
Cr717       O718   1.765       .  S
O719       Cr737   2.038       .  S
O719        C727   1.274       .  A
O720       Cr737   1.938       .  S
O720        C721   1.251       .  A
C721        O722   1.275       .  A
C721       C1273   1.509       .  S
O722       Cr738   2.055       .  S
O723       Cr738   1.951       .  S
O723        C724   1.254       .  A
C724        O725   1.274       .  A
C724       C1312   1.499       .  S
O725       Cr739   2.049       .  S
O726       Cr739   1.962       .  S
O726        C727   1.259       .  A
C727       C1381   1.493       .  S
O728       Cr737   1.942       .  S
O728        C736   1.250       .  A
O729       Cr737   2.030       .  S
O729        C730   1.271       .  A
C730        O731   1.255       .  A
C730       C1369   1.486       .  S
O731       Cr738   1.953       .  S
O732       Cr738   2.048       .  S
O732        C733   1.274       .  A
C733        O734   1.256       .  A
C733       C1300   1.483       .  S
O734       Cr739   1.955       .  S
O735       Cr739   2.049       .  S
O735        C736   1.272       .  A
C736       C1285   1.502       .  S
Cr737       O740   1.779       .  S
Cr738       O740   1.779       .  S
Cr739       O740   1.775       .  S
O741       Cr759   2.034       .  S
O741        C749   1.273       .  A
O742       Cr759   1.953       .  S
O742        C743   1.253       .  A
C743        O744   1.271       .  A
C743       C1213   1.487       .  S
O744       Cr760   2.038       .  S
O745       Cr760   1.953       .  S
O745        C746   1.255       .  A
C746        O747   1.272       .  A
C746       C1345   1.480       .  S
O747       Cr761   2.043       .  S
O748       Cr761   1.959       .  S
O748        C749   1.256       .  A
C749       C1264   1.483       .  S
O750       Cr759   1.948       .  S
O750        C758   1.251       .  A
O751       Cr759   2.037       .  S
O751        C752   1.273       .  A
C752        O753   1.260       .  A
C752       C1249   1.495       .  S
O753       Cr760   1.959       .  S
O754       Cr760   2.043       .  S
O754        C755   1.273       .  A
C755        O756   1.253       .  A
C755       C1237   1.492       .  S
O756       Cr761   1.949       .  S
O757       Cr761   2.041       .  S
O757        C758   1.272       .  A
C758       C1228   1.492       .  S
Cr759       O762   1.770       .  S
Cr760       O762   1.766       .  S
Cr761       O762   1.775       .  S
O763       Cr781   2.038       .  S
O763        C771   1.274       .  A
O764       Cr781   1.952       .  S
O764        C765   1.252       .  A
C765        O766   1.274       .  A
C765       C1177   1.504       .  S
O766       Cr782   2.050       .  S
O767       Cr782   1.959       .  S
O767        C768   1.258       .  A
C768        O769   1.272       .  A
C768       C1297   1.498       .  S
O769       Cr783   2.046       .  S
O770       Cr783   1.961       .  S
O770        C771   1.259       .  A
C771       C1252   1.496       .  S
O772       Cr781   1.960       .  S
O772        C780   1.252       .  A
O773       Cr781   2.037       .  S
O773        C774   1.273       .  A
C774        O775   1.258       .  A
O775       Cr782   1.969       .  S
O776       Cr782   2.046       .  S
O776        C777   1.273       .  A
C777        O778   1.254       .  A
C777       C1201   1.476       .  S
O778       Cr783   1.952       .  S
O779       Cr783   2.039       .  S
O779        C780   1.271       .  A
C780       C1189   1.486       .  S
Cr781       O784   1.775       .  S
Cr782       O784   1.774       .  S
Cr783       O784   1.772       .  S
O785        C793   1.260       .  A
O786        C787   1.262   1_554  A
C787       C1168   1.506       .  S
O788       Cr804   2.018       .  S
O789        C790   1.257   1_554  A
C790        O791   1.273       .  A
C790       C1204   1.482       .  S
O791       Cr805   2.022       .  S
O792       Cr805   1.987       .  S
O792        C793   1.259       .  A
C793       C1132   1.477       .  S
O794       Cr803   2.003       .  S
O794        C802   1.265       .  A
O795       Cr803   1.986       .  S
O795        C796   1.261       .  A
C796        O797   1.265       .  A
C796       C1141   1.488       .  S
O797       Cr804   1.994       .  S
O798       Cr804   2.023       .  S
O798        C799   1.274       .  A
C799        O800   1.256       .  A
C799       C1357   1.473       .  S
O801       Cr805   2.013   1_554  S
C802       C1153   1.501       .  S
Cr803       O806   1.777       .  S
Cr804       O806   1.764       .  S
O807       Cr825   1.974       .  S
O807        C815   1.258       .  A
O808       Cr825   2.001       .  S
O808        C809   1.264       .  A
C809        O810   1.264       .  A
C809       C1117   1.504       .  S
O810       Cr826   2.012       .  S
O811       Cr826   1.967       .  S
O811        C812   1.257       .  A
C812        O813   1.266       .  A
C812       C1240   1.466       .  S
O813       Cr827   1.999       .  S
O814       Cr827   2.011       .  S
O814        C815   1.267       .  A
C815       C1144   1.473       .  S
O816       Cr825   2.018       .  S
O816        C824   1.267       .  A
O817       Cr825   1.967       .  S
O817        C818   1.259       .  A
C818        O819   1.263       .  A
C818       C1129   1.456       .  S
O819       Cr826   2.000       .  S
O820       Cr826   2.007       .  S
O820        C821   1.270       .  A
C821        O822   1.261       .  A
C821       C1309   1.473       .  S
O822       Cr827   1.981       .  S
O823       Cr827   1.995       .  S
O823        C824   1.260       .  A
C824       C1105   1.490       .  S
Cr825       O828   1.780       .  S
Cr826       O828   1.773       .  S
Cr827       O828   1.775       .  S
O829       Cr847   2.018       .  S
O829        C837   1.269       .  A
O830       Cr847   1.956       .  S
O830        C831   1.252       .  A
C831        O832   1.274       .  A
C831       C1336   1.485       .  S
O832       Cr848   2.046       .  S
O833       Cr848   1.952       .  S
O833        C834   1.256       .  A
C834        O835   1.276       .  A
C834       C1060   1.501       .  S
O835       Cr849   2.058       .  S
O836       Cr849   1.960       .  S
O836        C837   1.258       .  A
C837       C1096   1.470       .  S
O838       Cr847   1.954       .  S
O838        C846   1.255       .  A
O839       Cr847   2.030       .  S
O839        C840   1.271       .  A
C840        O841   1.255       .  A
C840       C1081   1.475       .  S
O841       Cr848   1.953       .  S
O842       Cr848   2.047       .  S
O842        C843   1.270       .  A
C843        O844   1.252       .  A
C843       C1072   1.492       .  S
O844       Cr849   1.948       .  S
O845       Cr849   2.046       .  S
O845        C846   1.274       .  A
C846       C1120   1.495       .  S
Cr847       O850   1.765       .  S
Cr848       O850   1.771       .  S
Cr849       O850   1.763       .  S
O851       Cr869   1.960       .  S
O851        C859   1.254       .  A
O852       Cr869   2.011       .  S
O852        C853   1.268       .  A
C853        O854   1.262       .  A
C853       C1165   1.498       .  S
O854       Cr870   1.999       .  S
O855       Cr870   1.973       .  S
O855        C856   1.258       .  A
C856        O857   1.269       .  A
C856       C1045   1.467       .  S
O857       Cr871   2.003       .  S
O858       Cr871   2.016       .  S
O858        C859   1.267       .  A
O860       Cr869   2.009       .  S
O860        C868   1.265       .  A
O861       Cr869   1.978       .  S
O861        C862   1.257       .  A
C862        O863   1.268       .  A
C862       C1084   1.494       .  S
O863       Cr870   2.008       .  S
O864       Cr870   2.003       .  S
O864        C865   1.270       .  A
C865        O866   1.259       .  A
C865       C1036   1.466       .  S
O866       Cr871   1.969       .  S
O867       Cr871   1.999       .  S
O867        C868   1.260       .  A
C868       C1288   1.492       .  S
Cr869       O872   1.776       .  S
Cr870       O872   1.769       .  S
Cr871       O872   1.771       .  S
O873       Cr891   1.985       .  S
O873        C881   1.259       .  A
O874       Cr891   2.004       .  S
O874        C875   1.264       .  A
C875        O876   1.260       .  A
C875       C1156   1.494       .  S
O876       Cr892   1.998       .  S
O877       Cr892   1.981       .  S
O877        C878   1.264       .  A
C878        O879   1.272       .  A
C878        C997   1.471       .  S
O879       Cr893   2.001       .  S
O880       Cr893   2.007       .  S
O880        C881   1.267       .  A
O882       Cr891   2.003       .  S
O882        C890   1.266       .  A
O883       Cr891   1.972       .  S
O883        C884   1.257       .  A
C884        O885   1.269       .  A
C884       C1021   1.476       .  S
O885       Cr892   2.020       .  S
O886       Cr892   2.011       .  S
O886        C887   1.268       .  A
C887        O888   1.255       .  A
C887       C1057   1.472       .  S
O888       Cr893   1.969       .  S
O889       Cr893   2.002       .  S
O889        C890   1.262       .  A
C890       C1216   1.495       .  S
Cr891       O894   1.782       .  S
Cr892       O894   1.775       .  S
Cr893       O894   1.775       .  S
O895       Cr913   2.037       .  S
O895        C903   1.273       .  A
O896       Cr913   1.969       .  S
O896        C897   1.255       .  A
C897        O898   1.272       .  A
C897       C1108   1.490       .  S
O898       Cr914   2.038       .  S
O899       Cr914   1.942       .  S
O899        C900   1.250       .  A
C900        O901   1.275       .  A
C900        C985   1.490       .  S
O901       Cr915   2.058       .  S
O902       Cr915   1.955       .  S
O902        C903   1.258       .  A
C903       C1024   1.480       .  S
O904       Cr913   1.963       .  S
O904        C912   1.253       .  A
O905       Cr913   2.035       .  S
O905        C906   1.273       .  A
C906        O907   1.254       .  A
C906       C1012   1.490       .  S
O907       Cr914   1.944       .  S
O908       Cr914   2.050       .  S
O908        C909   1.275       .  A
C909        O910   1.252       .  A
C909       C1033   1.486       .  S
O910       Cr915   1.938       .  S
O911       Cr915   2.049       .  S
O911        C912   1.275       .  A
C912       C1180   1.492       .  S
Cr913       O916   1.768       .  S
Cr914       O916   1.769       .  S
Cr915       O916   1.769       .  S
O917       Cr935   2.031       .  S
O917        C925   1.273       .  A
O918       Cr935   1.955       .  S
O918        C919   1.255       .  A
C919       C1192   1.512       .  S
O920       Cr936   2.052       .  S
O921        C922   1.251       .  A
C922        O923   1.272       .  A
C922       C1048   1.496       .  S
O923       Cr937   2.053       .  S
O924       Cr937   1.954       .  S
O924        C925   1.256       .  A
C925        C961   1.474       .  S
O926        C934   1.253       .  A
O927        C928   1.272       .  A
C928        O929   1.257       .  A
C928        C976   1.485       .  S
O929       Cr936   1.954       .  S
O930       Cr936   2.068       .  S
O930        C931   1.278       .  A
C931        O932   1.254       .  A
C931       C1000   1.499       .  S
O933       Cr937   2.044       .  S
C934       C1324   1.491       .  S
Cr935       O938   1.765       .  S
Cr937       O938   1.768       .  S
O939       Cr957   1.984       .  S
O939        C947   1.257       .  A
O940       Cr957   2.009       .  S
O940        C941   1.264       .  A
C941        O942   1.258       .  A
C941       C1225   1.484       .  S
O942       Cr958   1.990       .  S
O943       Cr958   1.967       .  S
O943        C944   1.259       .  A
C944        O945   1.270       .  A
C944       C1069   1.463       .  S
O945       Cr959   2.002       .  S
O946       Cr959   2.012       .  S
O946        C947   1.263       .  A
C947        C973   1.475       .  S
O948       Cr957   2.010       .  S
O948        C956   1.268       .  A
O949       Cr957   1.981       .  S
O949        C950   1.260       .  A
C950        O951   1.268       .  A
C950        C964   1.491       .  S
O951       Cr958   2.012       .  S
O952       Cr958   2.012       .  S
O952        C953   1.271       .  A
C953        O954   1.256       .  A
C953        C988   1.472       .  S
O954       Cr959   1.964       .  S
O955       Cr959   1.997       .  S
O955        C956   1.261       .  A
C956       C1276   1.491       .  S
Cr957       O960   1.782       .  S
Cr958       O960   1.769       .  S
Cr959       O960   1.772       .  S
C961        C962   1.401       .  A
C961        C966   1.405       .  A
C962        C963   1.397       .  A
C962        H971   1.083       .  S
C963        C964   1.415       .  A
C963        S967   1.803       .  S
C964        C965   1.413       .  A
C965        C966   1.410       .  A
C965        H972   1.083       .  S
C966        S968   1.803       .  S
S967        H970   1.407       .  S
S968        H969   1.407       .  S
C973        C974   1.398       .  A
C973        C978   1.412       .  A
C974        C975   1.394       .  A
C974        H983   1.082       .  S
C975        C976   1.415       .  A
C975        S979   1.805       .  S
C976        C977   1.409       .  A
C977        C978   1.410       .  A
C977        H984   1.084       .  S
C978        S980   1.803       .  S
S979        H982   1.408       .  S
S980        H981   1.405       .  S
C985        C986   1.409       .  A
C985        C990   1.417       .  A
C986        C987   1.408       .  A
C986        H995   1.084       .  S
C987        C988   1.416       .  A
C987        S991   1.802       .  S
C988        C989   1.401       .  A
C989        C990   1.394       .  A
C989        H996   1.085       .  S
C990        S992   1.803       .  S
S991        H994   1.404       .  S
S992        H993   1.406       .  S
C997        C998   1.405       .  A
C997       C1002   1.406       .  A
C998        C999   1.408       .  A
C998       H1007   1.084       .  S
C999       C1000   1.419       .  A
C999       S1003   1.799       .  S
C1000      C1001   1.413       .  A
C1001      C1002   1.395       .  A
C1001      H1008   1.083       .  S
C1002      S1004   1.807       .  S
S1003      H1006   1.407       .  S
S1004      H1005   1.407       .  S
C1009      C1010   1.399       .  A
C1009      C1014   1.418       .  A
C1010      C1011   1.389       .  A
C1010      H1019   1.084       .  S
C1011      C1012   1.420       .  A
C1011      S1015   1.804       .  S
C1012      C1013   1.407       .  A
C1013      C1014   1.412       .  A
C1013      H1020   1.083       .  S
C1014      S1016   1.799       .  S
S1015      H1018   1.404       .  S
C1021      C1022   1.401       .  A
C1021      C1026   1.412       .  A
C1022      C1023   1.397       .  A
C1022      H1031   1.084       .  S
C1023      C1024   1.412       .  A
C1023      S1027   1.803       .  S
C1024      C1025   1.405       .  A
C1025      C1026   1.408       .  A
C1025      H1032   1.083       .  S
C1026      S1028   1.803       .  S
S1027      H1030   1.404       .  S
S1028      H1029   1.406       .  S
C1033      C1034   1.407       .  A
C1033      C1038   1.421       .  A
C1034      C1035   1.402       .  A
C1034      H1043   1.084       .  S
C1035      C1036   1.412       .  A
C1035      S1039   1.802       .  S
C1036      C1037   1.399       .  A
C1037      C1038   1.398       .  A
C1037      H1044   1.084       .  S
C1038      S1040   1.814       .  S
S1039      H1042   1.404       .  S
S1040      H1041   1.406       .  S
C1045      C1046   1.406       .  A
C1045      C1050   1.405       .  A
C1046      C1047   1.405       .  A
C1046      H1055   1.084       .  S
C1047      C1048   1.417       .  A
C1047      S1051   1.801       .  S
C1048      C1049   1.414       .  A
C1049      C1050   1.397       .  A
S1051      H1054   1.408       .  S
S1052      H1053   1.407       .  S
C1057      C1058   1.406       .  A
C1057      C1062   1.401       .  A
C1058      C1059   1.409       .  A
C1058      H1067   1.084       .  S
C1059      C1060   1.417       .  A
C1059      S1063   1.806       .  S
C1060      C1061   1.416       .  A
C1061      C1062   1.403       .  A
C1061      H1068   1.082       .  S
C1062      S1064   1.806       .  S
S1063      H1066   1.407       .  S
S1064      H1065   1.406       .  S
C1069      C1070   1.404       .  A
C1069      C1074   1.406       .  A
C1070      C1071   1.403       .  A
C1070      H1079   1.084       .  S
C1071      C1072   1.418       .  A
C1071      S1075   1.800       .  S
C1072      C1073   1.412       .  A
C1073      C1074   1.395       .  A
C1073      H1080   1.084       .  S
C1074      S1076   1.803       .  S
S1075      H1078   1.408       .  S
S1076      H1077   1.403       .  S
C1081      C1082   1.400       .  A
C1081      C1086   1.410       .  A
C1082      C1083   1.411       .  A
C1082      H1091   1.083       .  S
C1083      C1084   1.424       .  A
C1083      S1087   1.807       .  S
C1084      C1085   1.404       .  A
C1085      C1086   1.394       .  A
C1085      H1092   1.082       .  S
C1086      S1088   1.807       .  S
S1087      H1090   1.407       .  S
S1088      H1089   1.407       .  S
C1093      C1094   1.402       .  A
C1093      C1098   1.409       .  A
C1094      C1095   1.397       .  A
C1094      H1103   1.084       .  S
C1095      C1096   1.410       .  A
C1095      S1099   1.803       .  S
C1096      C1097   1.404       .  A
C1097      C1098   1.403       .  A
C1097      H1104   1.084       .  S
C1098      S1100   1.798       .  S
S1099      H1102   1.407       .  S
C1105      C1106   1.399       .  A
C1105      C1110   1.419       .  A
C1106      C1107   1.404   1_455  A
C1106      H1115   1.084       .  S
C1107      C1108   1.420       .  A
C1107      S1111   1.802       .  S
C1108      C1109   1.400       .  A
C1109      C1110   1.407   1_655  A
C1109      H1116   1.084       .  S
C1110      S1112   1.795       .  S
S1111      H1114   1.398       .  S
S1112      H1113   1.402       .  S
C1117      C1118   1.407       .  A
C1117      C1122   1.420       .  A
C1118      C1119   1.400       .  A
C1118      H1127   1.082       .  S
C1119      C1120   1.414       .  A
C1119      S1123   1.811       .  S
C1120      C1121   1.408       .  A
C1121      C1122   1.418       .  A
C1121      H1128   1.083       .  S
C1122      S1124   1.805       .  S
S1123      H1126   1.407       .  S
S1124      H1125   1.407       .  S
C1129      C1130   1.393       .  A
C1129      C1134   1.407       .  A
C1130      C1131   1.390       .  A
C1130      H1139   1.082       .  S
C1131      C1132   1.420       .  A
C1131      S1135   1.813       .  S
C1132      C1133   1.409       .  A
C1133      C1134   1.401       .  A
C1133      H1140   1.084       .  S
C1134      S1136   1.804       .  S
S1135      H1138   1.408       .  S
S1136      H1137   1.405       .  S
C1141      C1142   1.403       .  A
C1141      C1146   1.418       .  A
C1142      C1143   1.392       .  A
C1142      H1151   1.084       .  S
C1143      C1144   1.414       .  A
C1143      S1147   1.799       .  S
C1144      C1145   1.400       .  A
C1145      C1146   1.402       .  A
C1145      H1152   1.084       .  S
C1146      S1148   1.791       .  S
S1147      H1150   1.397       .  S
S1148      H1149   1.406       .  S
C1153      C1154   1.411       .  A
C1153      C1158   1.417       .  A
C1154      C1155   1.412   1_455  A
C1154      H1163   1.084       .  S
C1155      C1156   1.416       .  A
C1155      S1159   1.801       .  S
C1156      C1157   1.404       .  A
C1157      C1158   1.402   1_655  A
C1157      H1164   1.082       .  S
C1158      S1160   1.804       .  S
S1159      H1162   1.407       .  S
C1165      C1166   1.404       .  A
C1165      C1170   1.417       .  A
C1166      C1167   1.402       .  A
C1166      H1175   1.084       .  S
C1167      C1168   1.422       .  A
C1167      S1171   1.803   1_556  S
C1168      C1169   1.411       .  A
C1169      C1170   1.412       .  A
C1169      H1176   1.083       .  S
C1170      S1172   1.801       .  S
S1171      H1174   1.408       .  S
S1172      H1173   1.407       .  S
C1177      C1178   1.415       .  A
C1177      C1182   1.413   1_565  A
C1178      C1179   1.403   1_565  A
C1178      H1187   1.083       .  S
C1179      C1180   1.407       .  A
C1179      S1183   1.799   1_545  S
C1180      C1181   1.412       .  A
C1181      C1182   1.411       .  A
C1181      H1188   1.082       .  S
C1182      S1184   1.798       .  S
S1183      H1186   1.404   1_565  S
S1184      H1185   1.407   1_545  S
C1189      C1190   1.407       .  A
C1189      C1194   1.406       .  A
C1190      C1191   1.414       .  A
C1190      H1199   1.081       .  S
C1191      C1192   1.420       .  A
C1192      C1193   1.416       .  A
C1193      C1194   1.399       .  A
C1193      H1200   1.083       .  S
C1194      S1196   1.805       .  S
S1195      H1198   1.407       .  S
S1196      H1197   1.407       .  S
C1201      C1202   1.409       .  A
C1201      C1206   1.407       .  A
C1202      C1203   1.407       .  A
C1202      H1211   1.083       .  S
C1203      C1204   1.413       .  A
C1203      S1207   1.800       .  S
C1204      C1205   1.409       .  A
C1205      C1206   1.394       .  A
C1205      H1212   1.085       .  S
C1206      S1208   1.804       .  S
S1207      H1210   1.406       .  S
S1208      H1209   1.407       .  S
C1213      C1214   1.407       .  A
C1213      C1218   1.413       .  A
C1214      C1215   1.416   1_565  A
C1214      H1223   1.082       .  S
C1215      C1216   1.418       .  A
C1215      S1219   1.805       .  S
C1216      C1217   1.405       .  A
C1217      C1218   1.395   1_545  A
C1217      H1224   1.083       .  S
C1218      S1220   1.805       .  S
S1219      H1222   1.407   1_545  S
S1220      H1221   1.407       .  S
C1225      C1226   1.408       .  A
C1225      C1230   1.408       .  A
C1226      C1227   1.406       .  A
C1226      H1235   1.081       .  S
C1227      C1228   1.409       .  A
C1227      S1231   1.797       .  S
C1228      C1229   1.413       .  A
C1229      C1230   1.403       .  A
C1229      H1236   1.084       .  S
C1230      S1232   1.804       .  S
S1231      H1234   1.406       .  S
S1232      H1233   1.405       .  S
C1237      C1238   1.410       .  A
C1237      C1242   1.422       .  A
C1238      C1239   1.404       .  A
C1238      H1247   1.083       .  S
C1239      C1240   1.411       .  A
C1239      S1243   1.803       .  S
C1240      C1241   1.398       .  A
C1241      C1242   1.395       .  A
C1241      H1248   1.085       .  S
C1242      S1244   1.805       .  S
S1243      H1246   1.405       .  S
S1244      H1245   1.408       .  S
C1249      C1250   1.401       .  A
C1249      C1254   1.419       .  A
C1250      C1251   1.393       .  A
C1250      H1259   1.084       .  S
C1251      C1252   1.419       .  A
C1251      S1255   1.804       .  S
C1252      C1253   1.408       .  A
C1253      C1254   1.419       .  A
C1253      H1260   1.082       .  S
C1254      S1256   1.804       .  S
S1255      H1258   1.403       .  S
S1256      H1257   1.407       .  S
C1261      C1262   1.406       .  A
C1261      C1266   1.412       .  A
C1262      C1263   1.404       .  A
C1262      H1271   1.085       .  S
C1263      C1264   1.413       .  A
C1263      S1267   1.804       .  S
C1264      C1265   1.406       .  A
C1265      C1266   1.407       .  A
C1265      H1272   1.084       .  S
C1266      S1268   1.800       .  S
S1267      H1270   1.407       .  S
C1273      C1274   1.416       .  A
C1273      C1278   1.417   1_455  A
C1274      C1275   1.397   1_455  A
C1274      H1283   1.083       .  S
C1275      C1276   1.407       .  A
C1275      S1279   1.806       .  S
C1276      C1277   1.413       .  A
C1277      C1278   1.415       .  A
C1277      H1284   1.084       .  S
C1278      S1280   1.797       .  S
S1279      H1282   1.407       .  S
S1280      H1281   1.404   1_655  S
C1285      C1286   1.412       .  A
C1285      C1290   1.415       .  A
C1286      C1287   1.399   1_565  A
C1286      H1295   1.080       .  S
C1287      C1288   1.407       .  A
C1287      S1291   1.808       .  S
C1288      C1289   1.412       .  A
C1289      C1290   1.414   1_545  A
C1289      H1296   1.084       .  S
C1290      S1292   1.799       .  S
S1291      H1294   1.406   1_545  S
S1292      H1293   1.407       .  S
C1297      C1298   1.412       .  A
C1297      C1302   1.419       .  A
C1298      C1299   1.401       .  A
C1298      H1307   1.082       .  S
C1299      C1300   1.409       .  A
C1299      S1303   1.810       .  S
C1300      C1301   1.406       .  A
C1301      C1302   1.406       .  A
C1301      H1308   1.084       .  S
C1302      S1304   1.800       .  S
S1303      H1306   1.406       .  S
S1304      H1305   1.408       .  S
C1309      C1310   1.398       .  A
C1309      C1314   1.412       .  A
C1310      C1311   1.400       .  A
C1310      H1319   1.085       .  S
C1311      C1312   1.426       .  A
C1311      S1315   1.802       .  S
C1312      C1313   1.409       .  A
C1313      C1314   1.405       .  A
C1313      H1320   1.083       .  S
C1314      S1316   1.803       .  S
S1315      H1318   1.408       .  S
S1316      H1317   1.405       .  S
C1321      C1322   1.409       .  A
C1321      C1326   1.405   1_455  A
C1322      C1323   1.406   1_455  A
C1322      H1331   1.084       .  S
C1323      C1324   1.412       .  A
C1324      C1325   1.413       .  A
C1325      C1326   1.402       .  A
C1325      H1332   1.084       .  S
C1326      S1328   1.800       .  S
S1327      H1330   1.406   1_455  S
S1328      H1329   1.405   1_655  S
C1333      C1334   1.412       .  A
C1333      C1338   1.410   1_565  A
C1334      C1335   1.404   1_565  A
C1334      H1343   1.083       .  S
C1335      C1336   1.409       .  A
C1335      S1339   1.804   1_545  S
C1336      C1337   1.411       .  A
C1337      C1338   1.407       .  A
C1337      H1344   1.084       .  S
C1338      S1340   1.797       .  S
S1339      H1342   1.406   1_565  S
S1340      H1341   1.406   1_545  S
C1345      C1346   1.406       .  A
C1345      C1350   1.410       .  A
C1346      C1347   1.405       .  A
C1346      H1355   1.084       .  S
C1347      C1348   1.420       .  A
C1347      S1351   1.799       .  S
C1348      C1349   1.411       .  A
C1349      C1350   1.396       .  A
C1349      H1356   1.083       .  S
C1350      S1352   1.806       .  S
S1351      H1354   1.407       .  S
S1352      H1353   1.408       .  S
C1357      C1358   1.402       .  A
C1357      C1362   1.414       .  A
C1358      C1359   1.400       .  A
C1358      H1367   1.085       .  S
C1359      C1360   1.423       .  A
C1359      S1363   1.806       .  S
C1360      C1361   1.408       .  A
C1361      C1362   1.406       .  A
C1361      H1368   1.084       .  S
C1362      S1364   1.802       .  S
S1363      H1366   1.408       .  S
S1364      H1365   1.405       .  S
C1369      C1370   1.405       .  A
C1369      C1374   1.413       .  A
C1370      C1371   1.395       .  A
C1370      H1379   1.085       .  S
C1371      C1372   1.410       .  A
C1371      S1375   1.805       .  S
C1372      C1373   1.410       .  A
C1373      C1374   1.413       .  A
C1373      H1380   1.084   1_556  S
C1374      S1376   1.799       .  S
S1376      H1377   1.404       .  S
C1381      C1382   1.410       .  A
C1381      C1386   1.418       .  A
C1382      C1383   1.421       .  A
C1382      H1391   1.082       .  S
C1383      C1384   1.417       .  A
C1383      S1387   1.803       .  S
C1384      C1385   1.397       .  A
C1385      C1386   1.389       .  A
C1385      H1392   1.085       .  S
C1386      S1388   1.801       .  S
S1387      H1390   1.407       .  S
S1388      H1389   1.397       .  S
