geometry optimzed in LAMMPS
_audit_creation_date              2020-12-01 
_audit_creation_method            'lammps2cif' 
_symmetry_space_group_name_H-M    'P1' 
_symmetry_Int_Tables_number       1 
_symmetry_cell_setting            triclinic 
loop_ 
_symmetry_equiv_pos_as_xyz 
  x,y,z 
_cell_length_a                    51.06127301 
_cell_length_b                    51.59385668764954 
_cell_length_c                    38.41178404283044 
_cell_angle_alpha                 89.90638656933443 
_cell_angle_beta                  90.05952936558717 
_cell_angle_gamma                 89.98238736765816 
loop_ 
_atom_site_label 
_atom_site_type_symbol 
_atom_site_fract_x 
_atom_site_fract_y 
_atom_site_fract_z 
_atom_site_charge 
Zr1        Zr  0.99948643  0.03843374  0.19995768     2.17500
O2          O  0.99480974  0.08034026  0.17098082    -0.51400
O3          O  0.99704537  0.02511488  0.13886810    -0.74600
O4          O  0.04142302  0.06051044  0.19095599    -0.81400
O5          O  0.92624678  0.03684998  0.21984362    -0.83200
O6          O  0.07381509  0.03530929  0.21346615    -0.78800
O7          O  0.95876313  0.06311057  0.20013355    -0.90400
O8          O  0.99776736  0.98117058  0.13631024    -0.76400
O9          O  0.02698574  0.00117861  0.19563776    -0.85900
O10         O  0.97107753  0.00177866  0.19775660    -0.85600
O11         O  0.02627327  0.03953751  0.25169665    -0.72300
O12         O  0.97445086  0.03921612  0.25292680    -0.84500
Zr13       Zr  0.00101634  0.96496522  0.29895545     2.26400
Zr14       Zr  0.05306245  0.00146340  0.24749655     2.06300
Zr15       Zr  0.94696277  0.00178134  0.25101071     2.10000
Zr16       Zr  0.99845534  0.96462413  0.19476076     1.78800
O17         O  0.91573886  0.02116898  0.29113686    -0.93300
O18         O  0.03395181  0.94222710  0.16496050    -0.41100
O19         O  0.97414959  0.96439238  0.24765777    -0.77700
O20         O  0.02567820  0.96377599  0.24532525    -0.96400
O21         O  0.02908987  0.00184945  0.30112917    -0.89700
O22         O  0.97302193  0.00193691  0.30276708    -0.92500
C23         C  0.99693547  0.00357402  0.12212217     1.01200
C24         C  0.93458685  0.05787392  0.20601690     1.14200
C25         C  0.06562892  0.05552727  0.19734637     1.04900
O26         O  0.08383936  0.97985242  0.20882574    -0.94700
O27         O  0.07485710  0.96797617  0.28095613    -0.90400
O28         O  0.04317792  0.94268086  0.30503065    -0.83600
C29         C  0.06717503  0.94777509  0.29753511     1.11600
O30         O  0.00141684  0.08584249  0.29802060    -0.96700
Zr31       Zr  0.00118960  0.03875948  0.30401893     1.88900
O32         O  0.00168867  0.97840145  0.36034108    -0.73300
O33         O  0.08737157  0.02132642  0.28259248    -0.52600
O34         O  0.04133299  0.05581395  0.32960199    -0.97200
O35         O  0.96566968  0.06026679  0.33511078    -0.54500
O36         O  0.00139591  0.02235893  0.36242796    -0.73800
C37         C  0.00162400  0.00006731  0.37690249     0.98500
O38         O  0.99628382  0.92238506  0.32596619    -0.62600
O39         O  0.91325675  0.98229164  0.21438189    -0.57400
O40         O  0.96014191  0.94040574  0.30191837    -0.94100
O41         O  0.92711640  0.96511430  0.28002567    -0.92600
O42         O  0.95898163  0.94745858  0.16764776    -0.92900
O43         O  0.99624977  0.91780290  0.20246248    -0.91700
C44         C  0.93589276  0.94459385  0.29484649     1.17400
H45         H  0.95934361  0.00277822  0.17806004     0.33300
H46         H  0.03601363  0.94820636  0.24315834     0.44200
H47         H  0.96195057  0.00105804  0.32311308     0.37700
H48         H  0.03679121  0.05502613  0.25323543     0.34200
H49         H  0.02531987  0.93275759  0.14569837     0.26000
H50         H  0.10349648  0.01963512  0.26846930     0.31900
H51         H  0.03625856  0.06168513  0.35318288     0.37800
H52         H  0.94754002  0.94254047  0.18737335     0.32300
H53         H  0.89649279  0.98679608  0.22580336     0.31100
H54         H  0.89838974  0.01777599  0.28055010     0.32800
H55         H  0.95668894  0.04638493  0.34831175     0.31800
H56         H  0.99532340  0.91526029  0.22799519     0.35800
H57         H  0.00515804  0.91003707  0.31016530     0.28500
H58         H  0.00565851  0.07930445  0.14967582     0.32700
H59         H  0.00435146  0.09272004  0.32176196     0.35600
H60         H  0.91320854  0.99241615  0.19246930     0.28200
H61         H  0.00729193  0.92286184  0.34718367     0.41100
H62         H  0.07709822  0.96193778  0.20666532     0.31100
H63         H  0.04400736  0.95613023  0.15324805     0.38800
H64         H  0.95299737  0.06524661  0.31675665     0.30600
H65         H  0.08337784  0.04010713  0.28237585     0.30700
H66         H  0.00379257  0.09308846  0.18610010     0.30900
Zr67       Zr  0.00057960  0.03643033  0.70048770     2.17500
O68         O  0.99618433  0.07848907  0.67185094    -0.51400
O69         O  0.00236717  0.02313867  0.63921582    -0.74600
O70         O  0.04236682  0.05993614  0.69634043    -0.81400
O71         O  0.92629899  0.03392466  0.72216993    -0.83200
O72         O  0.07478990  0.03432920  0.71807135    -0.78800
O73         O  0.95826538  0.05934105  0.69894086    -0.90400
O74         O  0.00279231  0.97919142  0.63705502    -0.76400
O75         O  0.02945989  0.00011790  0.69839985    -0.85900
O76         O  0.97368751  0.99858474  0.69650492    -0.85600
O77         O  0.02558267  0.03801196  0.75383257    -0.72300
O78         O  0.97390312  0.03583162  0.75180282    -0.84500
Zr79       Zr  0.00145264  0.96217491  0.79950843     2.26400
Zr80       Zr  0.05372196  0.00077466  0.75181132     2.06300
Zr81       Zr  0.94805130  0.99733082  0.74862846     2.10000
Zr82       Zr  0.00266144  0.96248057  0.69522228     1.78800
O83         O  0.91319552  0.01214174  0.78695151    -0.93300
O84         O  0.04252074  0.94631207  0.66781837    -0.41100
O85         O  0.97631277  0.96047323  0.74662919    -0.77700
O86         O  0.02790995  0.96209230  0.74730528    -0.96400
O87         O  0.02788305  0.00019352  0.80374616    -0.89700
O88         O  0.97241343  0.99829169  0.80171720    -0.92500
C89         C  0.00286634  0.00149615  0.62266261     1.01200
C90         C  0.93422425  0.05463460  0.70703552     1.14200
C91         C  0.06655207  0.05504180  0.70327255     1.04900
O92         O  0.08967220  0.98323296  0.71752397    -0.94700
O93         O  0.07551718  0.96667290  0.78417106    -0.90400
O94         O  0.04364627  0.94024492  0.80535133    -0.83600
C95         C  0.06768609  0.94583596  0.79911530     1.11600
O96         O  0.99580096  0.08337866  0.80225190    -0.96700
Zr97       Zr  0.99872845  0.03629275  0.80426108     1.88900
O98         O  0.00040371  0.97635645  0.86040908    -0.73300
O99         O  0.08285224  0.02265576  0.79253372    -0.52600
O100        O  0.03606309  0.05856565  0.83006545    -0.97200
O101        O  0.95899874  0.05465226  0.82926909    -0.54500
O102        O  0.99946619  0.02030695  0.86256788    -0.73800
C103        C  0.99977884  0.99801578  0.87691173     0.98500
O104        O  0.99941061  0.92153345  0.83216673    -0.62600
O105        O  0.91826649  0.97801469  0.70650927    -0.57400
O106        O  0.96086713  0.93674169  0.80103038    -0.94100
O107        O  0.92794250  0.96184267  0.77967673    -0.92600
O108        O  0.96587853  0.94053601  0.66758770    -0.92900
O109        O  0.00448805  0.91531891  0.69773907    -0.91700
C110        C  0.93655866  0.94136927  0.79467083     1.17400
H111        H  0.96244534  0.99917579  0.67606020     0.33300
H112        H  0.03883802  0.94696152  0.74481666     0.44200
H113        H  0.96077823  0.99696312  0.82143116     0.37700
H114        H  0.03550497  0.05378718  0.75658587     0.34200
H115        H  0.03639558  0.93634428  0.64736289     0.26000
H116        H  0.10068316  0.01756812  0.78507348     0.31900
H117        H  0.04511528  0.04520818  0.84416894     0.37800
H118        H  0.96180116  0.95078467  0.64645794     0.32300
H119        H  0.92243485  0.95927704  0.70704204     0.31100
H120        H  0.89678118  0.00748275  0.77472799     0.32800
H121        H  0.95047664  0.04019074  0.84185830     0.31800
H122        H  0.01217684  0.91127899  0.72078918     0.35800
H123        H  0.00665552  0.90802963  0.81660354     0.28500
H124        H  0.00818122  0.07796073  0.65162753     0.32700
H125        H  0.98627132  0.08717169  0.78035819     0.35600
H126        H  0.90077753  0.97930009  0.71747876     0.28200
H127        H  0.01226998  0.92316343  0.85136527     0.41100
H128        H  0.08347272  0.96598157  0.70987684     0.31100
H129        H  0.05104529  0.96182530  0.65769100     0.38800
H130        H  0.94740414  0.05798449  0.80906641     0.30600
H131        H  0.08156192  0.04128879  0.78657060     0.30700
H132        H  0.00400599  0.09128929  0.68799842     0.30900
Zr133      Zr  0.28631507  0.24769331  0.07299217     2.17500
O134        O  0.32669323  0.25092046  0.03925065    -0.51400
O135        O  0.27248413  0.24719851  0.01187125    -0.74600
O136        O  0.30983507  0.20602076  0.06954923    -0.81400
O137        O  0.28564472  0.32086480  0.09282078    -0.83200
O138        O  0.28409703  0.17459631  0.09312047    -0.78800
O139        O  0.31193751  0.28796538  0.07451106    -0.90400
O140        O  0.22812203  0.24596094  0.00877466    -0.76400
O141        O  0.24885797  0.22018327  0.07028425    -0.85900
O142        O  0.24883382  0.27534861  0.06854101    -0.85600
O143        O  0.28709963  0.22332618  0.12660587    -0.72300
O144        O  0.28606415  0.27448899  0.12398564    -0.84500
Zr145      Zr  0.21126424  0.24955807  0.17175290     2.26400
Zr146      Zr  0.24881251  0.19639135  0.12385548     2.06300
Zr147      Zr  0.24786979  0.30127418  0.12012502     2.10000
Zr148      Zr  0.21151144  0.24780719  0.06715877     1.78800
O149        O  0.26412295  0.33692628  0.15556617    -0.93300
O150        O  0.19204298  0.20885184  0.04239249    -0.41100
O151        O  0.21013751  0.27405314  0.11843312    -0.77700
O152        O  0.21041370  0.22313950  0.11979281    -0.96400
O153        O  0.24882100  0.22235034  0.17555455    -0.89700
O154        O  0.24829603  0.27759326  0.17377842    -0.92500
C155        C  0.25082114  0.24626071  0.99485515     1.01200
C156        C  0.30716265  0.31209440  0.08031729     1.14200
C157        C  0.30493547  0.18224268  0.07754937     1.04900
O158        O  0.22693651  0.16490943  0.08661011    -0.94700
O159        O  0.21505459  0.17575548  0.15840609    -0.90400
O160        O  0.18915258  0.20790008  0.17972425    -0.83600
C161        C  0.19456775  0.18392862  0.17426095     1.11600
O162        O  0.33355331  0.24895605  0.17641296    -0.96700
Zr163      Zr  0.28583413  0.25030395  0.17681248     1.88900
O164        O  0.22538384  0.25089747  0.23299998    -0.73300
O165        O  0.26789410  0.16394900  0.16241565    -0.52600
O166        O  0.30463966  0.21253438  0.20570218    -0.97200
O167        O  0.30514987  0.28997898  0.19978678    -0.54500
O168        O  0.26975834  0.25100731  0.23510531    -0.73800
C169        C  0.24729441  0.25102923  0.24955641     0.98500
O170        O  0.17058909  0.25329444  0.20477737    -0.62600
O171        O  0.22861632  0.32958452  0.07616310    -0.57400
O172        O  0.18556021  0.28968800  0.17072639    -0.94100
O173        O  0.21147163  0.32197390  0.14985735    -0.92600
O174        O  0.19322951  0.28496247  0.03631163    -0.92900
O175        O  0.16387580  0.24939501  0.06990019    -0.91700
C176        C  0.19027894  0.31366511  0.16390165     1.17400
H177        H  0.24979356  0.28621248  0.04808085     0.33300
H178        H  0.19476822  0.21273661  0.11802189     0.44200
H179        H  0.24728499  0.28931251  0.19331900     0.37700
H180        H  0.30280524  0.21320081  0.12975693     0.34200
H181        H  0.18226615  0.21498567  0.02168240     0.26000
H182        H  0.26588235  0.14732946  0.14983470     0.31900
H183        H  0.28941728  0.20238232  0.21399772     0.37800
H184        H  0.18483422  0.27759389  0.01528530     0.32300
H185        H  0.20946229  0.32801277  0.07955542     0.31100
H186        H  0.25514476  0.35252205  0.14638266     0.32800
H187        H  0.29205294  0.29696966  0.21627563     0.31800
H188        H  0.15999483  0.25586381  0.09359565     0.35800
H189        H  0.15699596  0.24424206  0.19098787     0.28500
H190        H  0.32501659  0.23802780  0.02030610     0.32700
H191        H  0.33893753  0.25123159  0.20100590     0.35600
H192        H  0.23286807  0.34735309  0.08403919     0.28200
H193        H  0.17306840  0.24246965  0.22584354     0.41100
H194        H  0.23648374  0.16562241  0.06420826     0.31100
H195        H  0.20699312  0.19904832  0.03263357     0.38800
H196        H  0.30493936  0.30228855  0.17998832     0.30600
H197        H  0.28695695  0.16744445  0.16213639     0.30700
H198        H  0.34073107  0.24407634  0.05452462     0.30900
Zr199      Zr  0.28671146  0.24830585  0.57264419     2.17500
O200        O  0.32826632  0.25296478  0.54191449    -0.51400
O201        O  0.27285505  0.24722317  0.51145546    -0.74600
O202        O  0.31010674  0.20674935  0.56750670    -0.81400
O203        O  0.28623654  0.32104992  0.59330206    -0.83200
O204        O  0.28450549  0.17526882  0.59118190    -0.78800
O205        O  0.31141140  0.28901658  0.57021422    -0.90400
O206        O  0.22845149  0.24653306  0.50962542    -0.76400
O207        O  0.24953559  0.22031324  0.57050039    -0.85900
O208        O  0.24883896  0.27546525  0.56835326    -0.85600
O209        O  0.28828107  0.22384309  0.62630799    -0.72300
O210        O  0.28663696  0.27530654  0.62365242    -0.84500
Zr211      Zr  0.21251672  0.24885521  0.67188768     2.26400
Zr212      Zr  0.25026287  0.19651056  0.62407805     2.06300
Zr213      Zr  0.24806254  0.30140363  0.61984297     2.10000
Zr214      Zr  0.21182464  0.24749276  0.56776328     1.78800
O215        O  0.26186299  0.33931723  0.65282797    -0.93300
O216        O  0.19214957  0.20941426  0.54090685    -0.41100
O217        O  0.21061688  0.27368521  0.61892174    -0.77700
O218        O  0.21155105  0.22260284  0.62008725    -0.96400
O219        O  0.25063173  0.22242161  0.67569069    -0.89700
O220        O  0.24913978  0.27760046  0.67340457    -0.92500
C221        C  0.25089508  0.24662676  0.49506644     1.01200
C222        C  0.30691626  0.31287558  0.57785750     1.14200
C223        C  0.30505164  0.18293076  0.57499454     1.04900
O224        O  0.22870778  0.16382054  0.58854192    -0.94700
O225        O  0.21642518  0.17494533  0.65732738    -0.90400
O226        O  0.19095613  0.20677858  0.68021950    -0.83600
C227        C  0.19613738  0.18286391  0.67380770     1.11600
O228        O  0.33458360  0.25048710  0.66816848    -0.96700
Zr229      Zr  0.28723864  0.25107521  0.67647065     1.88900
O230        O  0.22707902  0.25007043  0.73266712    -0.73300
O231        O  0.27010397  0.16548525  0.66403665    -0.52600
O232        O  0.30752797  0.21538594  0.70824658    -0.97200
O233        O  0.30679120  0.29019494  0.70084877    -0.54500
O234        O  0.27144742  0.25217261  0.73519297    -0.73800
C235        C  0.24887517  0.25116000  0.74938673     0.98500
O236        O  0.17085148  0.25211543  0.70273794    -0.62600
O237        O  0.22847149  0.32856699  0.57477373    -0.57400
O238        O  0.18675204  0.28875038  0.67283340    -0.94100
O239        O  0.21202663  0.32121795  0.65106767    -0.92600
O240        O  0.19223431  0.28491443  0.53903803    -0.92900
O241        O  0.16412330  0.24693024  0.57017630    -0.91700
C242        C  0.19130677  0.31272565  0.66609414     1.17400
H243        H  0.24956641  0.28626826  0.54781093     0.33300
H244        H  0.19608150  0.21194970  0.61846464     0.44200
H245        H  0.24791829  0.28922293  0.69301885     0.37700
H246        H  0.30407925  0.21374294  0.62878045     0.34200
H247        H  0.18576072  0.21549821  0.51794893     0.26000
H248        H  0.27177577  0.14927228  0.65046533     0.31900
H249        H  0.29283373  0.20614438  0.71959692     0.37800
H250        H  0.18382859  0.29491292  0.55796228     0.32300
H251        H  0.21350165  0.33731378  0.58613519     0.31100
H252        H  0.26429928  0.33301427  0.67696657     0.32800
H253        H  0.29230024  0.29934226  0.71272548     0.31800
H254        H  0.15979275  0.23602166  0.59059788     0.35800
H255        H  0.15787466  0.24252740  0.68855100     0.28500
H256        H  0.32705122  0.24132695  0.52150655     0.32700
H257        H  0.34221555  0.25287723  0.69165237     0.35600
H258        H  0.24135437  0.34258284  0.57071332     0.28200
H259        H  0.17300760  0.24170616  0.72423524     0.41100
H260        H  0.23568968  0.14709869  0.59719116     0.31100
H261        H  0.20711020  0.19794507  0.53533683     0.38800
H262        H  0.31087353  0.30118546  0.68040640     0.30600
H263        H  0.28831453  0.17163966  0.66712582     0.30700
H264        H  0.34168260  0.24499123  0.55718787     0.30900
Zr265      Zr  0.21196440  0.75229501  0.32312726     2.17500
O266        O  0.17222889  0.74939596  0.28790830    -0.51400
O267        O  0.22755369  0.75308628  0.26294433    -0.74600
O268        O  0.19002342  0.79434217  0.31653055    -0.81400
O269        O  0.21068804  0.67956582  0.34412176    -0.83200
O270        O  0.21616125  0.82606017  0.33848284    -0.78800
O271        O  0.18610530  0.71196488  0.32060846    -0.90400
O272        O  0.27191150  0.75125645  0.26164642    -0.76400
O273        O  0.24967798  0.77960263  0.32200256    -0.85900
O274        O  0.24908648  0.72412256  0.32148523    -0.85600
O275        O  0.20972511  0.77761976  0.37595320    -0.72300
O276        O  0.20988222  0.72649949  0.37514689    -0.84500
Zr277      Zr  0.28430075  0.75139950  0.42496785     2.26400
Zr278      Zr  0.24822637  0.80430335  0.37481929     2.06300
Zr279      Zr  0.24754189  0.69909931  0.37404130     2.10000
Zr280      Zr  0.28665678  0.75146303  0.32101519     1.78800
O281        O  0.22724139  0.66782682  0.41314559    -0.93300
O282        O  0.30737002  0.78790337  0.29133518    -0.41100
O283        O  0.28572610  0.72579839  0.37278567    -0.77700
O284        O  0.28635646  0.77719699  0.37246610    -0.96400
O285        O  0.24699632  0.77907024  0.42709982    -0.89700
O286        O  0.24685315  0.72388464  0.42656224    -0.92500
C287        C  0.24955475  0.75235756  0.24681786     1.01200
C288        C  0.19020697  0.68796001  0.32829075     1.14200
C289        C  0.19552374  0.81824917  0.32263324     1.04900
O290        O  0.26950936  0.83851556  0.34151353    -0.94700
O291        O  0.28201350  0.82489559  0.40973944    -0.90400
O292        O  0.30739052  0.79262365  0.43206069    -0.83600
C293        C  0.30246723  0.81659459  0.42569368     1.11600
O294        O  0.16215483  0.75157790  0.41984553    -0.96700
Zr295      Zr  0.20955445  0.75159299  0.42734993     1.88900
O296        O  0.26869217  0.75233485  0.48556605    -0.73300
O297        O  0.22487234  0.83408265  0.41304159    -0.52600
O298        O  0.19039550  0.78997439  0.45408953    -0.97200
O299        O  0.18963714  0.71368023  0.45455664    -0.54500
O300        O  0.22421509  0.75252135  0.48665337    -0.73800
C301        C  0.24656279  0.75270981  0.50162828     0.98500
O302        O  0.32626228  0.74647351  0.45479450    -0.62600
O303        O  0.26603109  0.66643851  0.33546976    -0.57400
O304        O  0.30853726  0.71047557  0.42822388    -0.94100
O305        O  0.28321538  0.67845692  0.40541531    -0.92600
O306        O  0.30772785  0.71373852  0.29533075    -0.92900
O307        O  0.33379802  0.75244076  0.33065105    -0.91700
C308        C  0.30385042  0.68657896  0.42104856     1.17400
H309        H  0.24859181  0.71290703  0.30138241     0.33300
H310        H  0.30209497  0.78746094  0.37090860     0.44200
H311        H  0.24750974  0.71261566  0.44664026     0.37700
H312        H  0.19405991  0.78801001  0.37755403     0.34200
H313        H  0.29277777  0.79756333  0.28033907     0.26000
H314        H  0.23214417  0.85138055  0.40744071     0.31900
H315        H  0.20537674  0.79947830  0.46433126     0.37800
H316        H  0.31328191  0.71949604  0.27186713     0.32300
H317        H  0.28413650  0.67242011  0.33097265     0.31100
H318        H  0.23717404  0.65156565  0.40959344     0.32800
H319        H  0.20423617  0.70398252  0.46544711     0.31800
H320        H  0.33595716  0.74835328  0.35569214     0.35800
H321        H  0.33945151  0.75480791  0.43955113     0.28500
H322        H  0.17488815  0.76143204  0.26811144     0.32700
H323        H  0.15485191  0.75294159  0.44364208     0.35600
H324        H  0.26814747  0.65077824  0.35014153     0.28200
H325        H  0.32522347  0.75767608  0.47565094     0.41100
H326        H  0.28823488  0.83357398  0.34085266     0.31100
H327        H  0.31360077  0.79946446  0.31013085     0.38800
H328        H  0.18402556  0.70265545  0.43483677     0.30600
H329        H  0.20667082  0.83462819  0.40415371     0.30700
H330        H  0.15814402  0.75737993  0.30198511     0.30900
Zr331      Zr  0.21166310  0.75058100  0.82561504     2.17500
O332        O  0.16820617  0.74759369  0.79932285    -0.51400
O333        O  0.22489423  0.75015154  0.76426975    -0.74600
O334        O  0.19035557  0.79270257  0.81821321    -0.81400
O335        O  0.21172926  0.67798851  0.84597905    -0.83200
O336        O  0.21634221  0.82426485  0.84082374    -0.78800
O337        O  0.18670708  0.71006930  0.82260820    -0.90400
O338        O  0.26929659  0.75037182  0.76158010    -0.76400
O339        O  0.24961692  0.77739449  0.82189399    -0.85900
O340        O  0.24842386  0.72216461  0.82249234    -0.85600
O341        O  0.21130721  0.77626375  0.87807813    -0.72300
O342        O  0.21103078  0.72522180  0.87801350    -0.84500
Zr343      Zr  0.28726109  0.74978006  0.92355293     2.26400
Zr344      Zr  0.25006450  0.80247330  0.87437097     2.06300
Zr345      Zr  0.24849632  0.69765774  0.87532734     2.10000
Zr346      Zr  0.28627533  0.74885196  0.81964378     1.78800
O347        O  0.22888518  0.66817770  0.91753730    -0.93300
O348        O  0.30849820  0.78531680  0.79217935    -0.41100
O349        O  0.28711277  0.72374650  0.87178226    -0.77700
O350        O  0.28788138  0.77507209  0.87067324    -0.96400
O351        O  0.25010328  0.77770864  0.92709754    -0.89700
O352        O  0.24942058  0.72263567  0.92765160    -0.92500
C353        C  0.24665343  0.75036417  0.74745475     1.01200
C354        C  0.19120546  0.68618557  0.83020958     1.14200
C355        C  0.19576538  0.81652184  0.82475721     1.04900
O356        O  0.27115877  0.83429738  0.83691295    -0.94700
O357        O  0.28481248  0.82299589  0.90748178    -0.90400
O358        O  0.31053646  0.79113897  0.93017575    -0.83600
C359        C  0.30538160  0.81506915  0.92351378     1.11600
O360        O  0.16462255  0.75242613  0.92703842    -0.96700
Zr361      Zr  0.21235347  0.75070765  0.92979037     1.88900
O362        O  0.27395366  0.74794432  0.98463915    -0.73300
O363        O  0.23018845  0.83470985  0.91245568    -0.52600
O364        O  0.19665347  0.79064922  0.95641456    -0.97200
O365        O  0.18956099  0.71432334  0.95676420    -0.54500
O366        O  0.22956508  0.74931586  0.98781922    -0.73800
C367        C  0.25230689  0.74844116  0.00163339     0.98500
O368        O  0.32942211  0.75272016  0.95337192    -0.62600
O369        O  0.26487750  0.66268411  0.83869133    -0.57400
O370        O  0.31154307  0.70861340  0.92472659    -0.94100
O371        O  0.28614466  0.67699676  0.90121159    -0.92600
O372        O  0.30226572  0.71048863  0.78956842    -0.92900
O373        O  0.33366169  0.74418355  0.82383526    -0.91700
C374        C  0.30696445  0.68487459  0.91648981     1.17400
H375        H  0.24716059  0.71088243  0.80252728     0.33300
H376        H  0.30363742  0.78524591  0.86838113     0.44200
H377        H  0.25033379  0.71128829  0.94764343     0.37700
H378        H  0.19579699  0.78683973  0.88012556     0.34200
H379        H  0.31829644  0.77760527  0.77251659     0.26000
H380        H  0.23584036  0.85160505  0.90277421     0.31900
H381        H  0.19071718  0.78554743  0.97998085     0.37800
H382        H  0.30496520  0.69748533  0.80821430     0.32300
H383        H  0.25626506  0.64685718  0.84773889     0.31100
H384        H  0.24289788  0.65572348  0.92370074     0.32800
H385        H  0.20335106  0.70433833  0.96897531     0.31800
H386        H  0.33908939  0.75689039  0.84172847     0.35800
H387        H  0.32862703  0.74000017  0.97267992     0.28500
H388        H  0.16835063  0.75945081  0.77902534     0.32700
H389        H  0.15862125  0.75519139  0.95126012     0.35600
H390        H  0.25688435  0.66549697  0.81549961     0.28200
H391        H  0.34262925  0.74573859  0.93700895     0.41100
H392        H  0.28870576  0.82697019  0.83214348     0.31100
H393        H  0.29434117  0.79543037  0.78091693     0.38800
H394        H  0.18429836  0.70309748  0.93707400     0.30600
H395        H  0.21116074  0.83390188  0.90758806     0.30700
H396        H  0.15604890  0.75564188  0.81623557     0.30900
Zr397      Zr  0.49971885  0.96259004  0.95302319     2.17500
O398        O  0.50364164  0.92152601  0.92190960    -0.51400
O399        O  0.50041708  0.97683934  0.89220539    -0.74600
O400        O  0.45793006  0.93986384  0.94602619    -0.81400
O401        O  0.57344683  0.96304806  0.97518621    -0.83200
O402        O  0.42531786  0.96466219  0.96854211    -0.78800
O403        O  0.54096000  0.93849936  0.95162078    -0.90400
O404        O  0.49942647  0.02080327  0.89096269    -0.76400
O405        O  0.47139275  0.99936701  0.95090586    -0.85900
O406        O  0.52741502  0.99982105  0.95062388    -0.85600
O407        O  0.47426881  0.96016201  0.00578695    -0.72300
O408        O  0.52588881  0.96154257  0.00490807    -0.84500
Zr409      Zr  0.49907168  0.03470973  0.05382452     2.26400
Zr410      Zr  0.44645532  0.99770940  0.00377958     2.06300
Zr411      Zr  0.55269303  0.99957787  0.00306239     2.10000
Zr412      Zr  0.49923510  0.03646186  0.94981977     1.78800
O413        O  0.58827871  0.98455734  0.04027292    -0.93300
O414        O  0.46181333  0.05816030  0.92329678    -0.41100
O415        O  0.52486247  0.03670781  0.00171287    -0.77700
O416        O  0.47315877  0.03597656  0.00121654    -0.96400
O417        O  0.47185704  0.99715023  0.05636042    -0.89700
O418        O  0.52788209  0.99825755  0.05597772    -0.92500
C419        C  0.50010480  0.99868131  0.87609347     1.01200
C420        C  0.56505913  0.94279714  0.95944765     1.14200
C421        C  0.43368665  0.94454896  0.95242265     1.04900
O422        O  0.41128576  0.01745020  0.97002137    -0.94700
O423        O  0.42485513  0.03160701  0.03698615    -0.90400
O424        O  0.45682066  0.05644557  0.06115706    -0.83600
C425        C  0.43274865  0.05155184  0.05397593     1.11600
O426        O  0.50263774  0.91355103  0.05743969    -0.96700
Zr427      Zr  0.50068767  0.96078597  0.05707351     1.88900
O428        O  0.49982203  0.02018394  0.11448468    -0.73300
O429        O  0.41588821  0.97503569  0.04178273    -0.52600
O430        O  0.46321098  0.93845529  0.08246492    -0.97200
O431        O  0.54135158  0.94291131  0.08024868    -0.54500
O432        O  0.49920329  0.97622905  0.11572603    -0.73800
C433        C  0.49946906  0.99833617  0.13055255     0.98500
O434        O  0.50194888  0.07579720  0.08510032    -0.62600
O435        O  0.58306447  0.01690171  0.96004190    -0.57400
O436        O  0.53946701  0.06028395  0.05587644    -0.94100
O437        O  0.57228097  0.03672738  0.03145010    -0.92600
O438        O  0.53837856  0.05695704  0.92622770    -0.92900
O439        O  0.49905044  0.08349708  0.95456738    -0.91700
C440        C  0.56358769  0.05673320  0.04748799     1.17400
H441        H  0.53873409  0.99934781  0.93049701     0.33300
H442        H  0.46255370  0.05139981  0.99942040     0.44200
H443        H  0.53936447  0.99905649  0.07595381     0.37700
H444        H  0.46412133  0.94443951  0.00749653     0.34200
H445        H  0.46846158  0.06500759  0.90088745     0.26000
H446        H  0.39836626  0.97949576  0.03245526     0.31900
H447        H  0.45122181  0.95245938  0.08991648     0.37800
H448        H  0.54105529  0.04899630  0.90307784     0.32300
H449        H  0.57994724  0.03583203  0.96011476     0.31100
H450        H  0.60424257  0.99262264  0.03043917     0.32800
H451        H  0.54474300  0.95259884  0.10201131     0.31800
H452        H  0.50500371  0.08695955  0.97865949     0.35800
H453        H  0.49372773  0.08896602  0.06979733     0.28500
H454        H  0.49125140  0.92256968  0.90210349     0.32700
H455        H  0.50439420  0.90845729  0.08222270     0.35600
H456        H  0.60059559  0.01481286  0.97071196     0.28200
H457        H  0.49004567  0.07417332  0.10532720     0.41100
H458        H  0.41608797  0.01438436  0.94540786     0.31100
H459        H  0.44980812  0.04396168  0.91659187     0.38800
H460        H  0.55511545  0.94885463  0.06398190     0.30600
H461        H  0.41811904  0.95642804  0.03624910     0.30700
H462        H  0.49626792  0.90815345  0.93762233     0.30900
Zr463      Zr  0.49915737  0.96145684  0.45386489     2.17500
O464        O  0.50286865  0.91957953  0.42472839    -0.51400
O465        O  0.49944775  0.97478324  0.39254321    -0.74600
O466        O  0.45693341  0.93915564  0.44731485    -0.81400
O467        O  0.57301852  0.96180071  0.47527807    -0.83200
O468        O  0.42505614  0.96414609  0.47134622    -0.78800
O469        O  0.54037074  0.93730278  0.45197348    -0.90400
O470        O  0.50058559  0.01870260  0.39012834    -0.76400
O471        O  0.47202016  0.99896498  0.45022215    -0.85900
O472        O  0.52786762  0.99785513  0.45094273    -0.85600
O473        O  0.47330799  0.96081192  0.50646901    -0.72300
O474        O  0.52497976  0.96098656  0.50618328    -0.84500
Zr475      Zr  0.49970006  0.03539245  0.55240635     2.26400
Zr476      Zr  0.44654373  0.99902345  0.50259006     2.06300
Zr477      Zr  0.55274288  0.99831121  0.50379705     2.10000
Zr478      Zr  0.50088706  0.03523598  0.44829576     1.78800
O479        O  0.58505701  0.97971309  0.54325212    -0.93300
O480        O  0.46517735  0.05625596  0.41694572    -0.41100
O481        O  0.52606063  0.03630820  0.50069662    -0.77700
O482        O  0.47435548  0.03627897  0.49928926    -0.96400
O483        O  0.47155214  0.99863341  0.55528244    -0.89700
O484        O  0.52749290  0.99834627  0.55624122    -0.92500
C485        C  0.49993716  0.99639161  0.37586187     1.01200
C486        C  0.56451106  0.94153193  0.45969184     1.14200
C487        C  0.43288754  0.94391526  0.45502022     1.04900
O488        O  0.41642600  0.01924337  0.46151711    -0.94700
O489        O  0.42603258  0.03368721  0.53588406    -0.90400
O490        O  0.45859676  0.05887641  0.55798542    -0.83600
C491        C  0.43442921  0.05409856  0.55141201     1.11600
O492        O  0.49649559  0.91454465  0.55422888    -0.96700
Zr493      Zr  0.49926197  0.96163664  0.55801077     1.88900
O494        O  0.50080108  0.02199945  0.61372110    -0.73300
O495        O  0.41192935  0.98166165  0.53959971    -0.52600
O496        O  0.46088046  0.94503875  0.58836507    -0.97200
O497        O  0.53757470  0.94072012  0.58351845    -0.54500
O498        O  0.49903664  0.97809716  0.61623623    -0.73800
C499        C  0.49987104  0.00042892  0.63046825     0.98500
O500        O  0.49616833  0.07649498  0.58348744    -0.62600
O501        O  0.58472122  0.01739441  0.46418939    -0.57400
O502        O  0.54066988  0.05996707  0.55342917    -0.94100
O503        O  0.57352539  0.03431774  0.53340520    -0.92600
O504        O  0.54147825  0.05111333  0.42268916    -0.92900
O505        O  0.50069528  0.08235846  0.45222543    -0.91700
C506        C  0.56492131  0.05525983  0.54726390     1.17400
H507        H  0.53922335  0.99664881  0.43092375     0.33300
H508        H  0.46410535  0.05187954  0.49677474     0.44200
H509        H  0.53886276  0.99918647  0.57632150     0.37700
H510        H  0.46287211  0.94532748  0.50875889     0.34200
H511        H  0.47349464  0.06427655  0.39628333     0.26000
H512        H  0.39547433  0.98820567  0.52912565     0.31900
H513        H  0.44671178  0.94525563  0.57079374     0.37800
H514        H  0.54984162  0.06152446  0.44125532     0.32300
H515        H  0.60193205  0.01345065  0.47483816     0.31100
H516        H  0.60216384  0.98353294  0.53227859     0.32800
H517        H  0.54489682  0.95356639  0.59998020     0.31800
H518        H  0.49722875  0.08605095  0.47708713     0.35800
H519        H  0.50934623  0.07570255  0.60239318     0.28500
H520        H  0.49024008  0.92001892  0.40515093     0.32700
H521        H  0.49599179  0.90830354  0.57861616     0.35600
H522        H  0.58420408  0.00662905  0.44289387     0.28200
H523        H  0.50263714  0.09000339  0.56728570     0.41100
H524        H  0.41638298  0.03786363  0.46769351     0.31100
H525        H  0.45458803  0.04185044  0.40737259     0.38800
H526        H  0.55049728  0.93994548  0.56435233     0.30600
H527        H  0.41158492  0.96276762  0.53519744     0.30700
H528        H  0.49571310  0.90666747  0.44128808     0.30900
Zr529      Zr  0.71450031  0.75161385  0.42575503     2.17500
O530        O  0.67331027  0.75603907  0.45741452    -0.51400
O531        O  0.72920527  0.75328964  0.48649892    -0.74600
O532        O  0.69108495  0.71011333  0.43319455    -0.81400
O533        O  0.71629712  0.82439457  0.40486492    -0.83200
O534        O  0.71570933  0.67823514  0.40882326    -0.78800
O535        O  0.68954059  0.79203941  0.42373630    -0.90400
O536        O  0.77349570  0.74972087  0.48822042    -0.76400
O537        O  0.75171125  0.72372585  0.42832803    -0.85900
O538        O  0.75212350  0.77914099  0.42820556    -0.85600
O539        O  0.71238132  0.72633679  0.37322495    -0.72300
O540        O  0.71431294  0.77727337  0.37349220    -0.84500
Zr541      Zr  0.78823466  0.75042925  0.32535215     2.26400
Zr542      Zr  0.75025818  0.69896801  0.37566202     2.06300
Zr543      Zr  0.75256129  0.80380833  0.37539723     2.10000
Zr544      Zr  0.78920916  0.75137911  0.42947744     1.78800
O545        O  0.73435722  0.83874332  0.34020720    -0.93300
O546        O  0.81240350  0.71573094  0.45760906    -0.41100
O547        O  0.79019696  0.77635914  0.37716402    -0.77700
O548        O  0.78887955  0.72531481  0.37837279    -0.96400
O549        O  0.75024398  0.72372127  0.32284192    -0.89700
O550        O  0.75132667  0.77880267  0.32304440    -0.92500
C551        C  0.75112387  0.75156918  0.50283679     1.01200
C552        C  0.69472362  0.81600333  0.41765819     1.14200
C553        C  0.69558183  0.68618763  0.42569093     1.04900
O554        O  0.77244540  0.66641593  0.41091934    -0.94700
O555        O  0.78388783  0.67682218  0.34294820    -0.90400
O556        O  0.81013037  0.70809056  0.31997744    -0.83600
C557        C  0.80466440  0.68430670  0.32721770     1.11600
O558        O  0.66601244  0.75552417  0.32723989    -0.96700
Zr559      Zr  0.71342960  0.75201946  0.32164934     1.88900
O560        O  0.77323093  0.75045827  0.26464154    -0.73300
O561        O  0.72776577  0.66772300  0.33871577    -0.52600
O562        O  0.69400677  0.71219979  0.29940291    -0.97200
O563        O  0.69401939  0.78949889  0.29260553    -0.54500
O564        O  0.72878318  0.74985958  0.26278841    -0.73800
C565        C  0.75124901  0.74980184  0.24825356     0.98500
O566        O  0.83009941  0.75304746  0.29492974    -0.62600
O567        O  0.77506208  0.83301797  0.41540018    -0.57400
O568        O  0.81328009  0.79101921  0.32326001    -0.94100
O569        O  0.78619416  0.82362951  0.33999677    -0.92600
O570        O  0.80575057  0.79179028  0.45365963    -0.92900
O571        O  0.83679356  0.75236601  0.42505408    -0.91700
C572        C  0.80776891  0.81516027  0.32740918     1.17400
H573        H  0.75155454  0.79049075  0.44816698     0.33300
H574        H  0.80434350  0.71470672  0.38068453     0.44200
H575        H  0.75210550  0.79003081  0.30291856     0.37700
H576        H  0.69646053  0.71636130  0.37146607     0.34200
H577        H  0.81865379  0.72285729  0.48005678     0.26000
H578        H  0.73514375  0.67042745  0.31515861     0.31900
H579        H  0.69138777  0.71527183  0.27419730     0.37800
H580        H  0.81562717  0.78657512  0.47472406     0.32300
H581        H  0.79142455  0.83820891  0.40347834     0.31100
H582        H  0.74172557  0.85478954  0.35038160     0.32800
H583        H  0.70551184  0.79334330  0.27251534     0.31800
H584        H  0.84060854  0.74591327  0.40132927     0.35800
H585        H  0.84326571  0.74597285  0.31135295     0.28500
H586        H  0.67467698  0.74422314  0.47767681     0.32700
H587        H  0.65886435  0.75036473  0.30430655     0.35600
H588        H  0.76424744  0.84894453  0.41562535     0.28200
H589        H  0.82912845  0.74025749  0.27578031     0.41100
H590        H  0.76534905  0.66874410  0.43467898     0.31100
H591        H  0.79851326  0.70326740  0.46416652     0.38800
H592        H  0.69705086  0.80406984  0.30885842     0.30600
H593        H  0.73466697  0.65064979  0.34616007     0.30700
H594        H  0.65969620  0.74827935  0.44228457     0.30900
Zr595      Zr  0.71158800  0.74812236  0.92462468     2.17500
O596        O  0.66897344  0.75179029  0.95296269    -0.51400
O597        O  0.72532895  0.74608094  0.98582799    -0.74600
O598        O  0.68909226  0.70614255  0.92932066    -0.81400
O599        O  0.71103341  0.82079345  0.90409770    -0.83200
O600        O  0.71596217  0.67488338  0.90786259    -0.78800
O601        O  0.68668340  0.78856139  0.92828839    -0.90400
O602        O  0.76972267  0.74480681  0.98865474    -0.76400
O603        O  0.74884666  0.72041112  0.92673067    -0.85900
O604        O  0.74907650  0.77566396  0.92951329    -0.85600
O605        O  0.71058600  0.72439301  0.87061486    -0.72300
O606        O  0.71172282  0.77541273  0.87386331    -0.84500
Zr607      Zr  0.78656774  0.75025216  0.82621821     2.26400
Zr608      Zr  0.74858030  0.69706465  0.87296300     2.06300
Zr609      Zr  0.74979824  0.80203630  0.87821636     2.10000
Zr610      Zr  0.78623241  0.74786483  0.93034972     1.78800
O611        O  0.73502168  0.83729250  0.84083190    -0.93300
O612        O  0.80768085  0.71020293  0.95604200    -0.41100
O613        O  0.78743919  0.77456459  0.87959720    -0.77700
O614        O  0.78694192  0.72351461  0.87773033    -0.96400
O615        O  0.74874863  0.72338966  0.82142553    -0.89700
O616        O  0.74976472  0.77878898  0.82438415    -0.92500
C617        C  0.74707049  0.74489758  0.00271320     1.01200
C618        C  0.69070576  0.81239933  0.92006116     1.14200
C619        C  0.69496684  0.68232402  0.92317561     1.04900
O620        O  0.77034959  0.66415561  0.90806448    -0.94700
O621        O  0.78307882  0.67636665  0.83943375    -0.90400
O622        O  0.80843801  0.70850518  0.81694970    -0.83600
C623        C  0.80349784  0.68452661  0.82331075     1.11600
O624        O  0.66438352  0.75165109  0.82482861    -0.96700
Zr625      Zr  0.71201649  0.75194983  0.82053340     1.88900
O626        O  0.77321974  0.75196999  0.76494826    -0.73300
O627        O  0.72467808  0.66697945  0.83588958    -0.52600
O628        O  0.69292092  0.71603657  0.78819031    -0.97200
O629        O  0.69198122  0.79148542  0.79779862    -0.54500
O630        O  0.72890035  0.75497374  0.76240605    -0.73800
C631        C  0.75150068  0.75410891  0.74822573     0.98500
O632        O  0.83035276  0.75380296  0.80101298    -0.62600
O633        O  0.76705416  0.83200428  0.92173547    -0.57400
O634        O  0.81071562  0.79108274  0.82387231    -0.94100
O635        O  0.78643707  0.82266247  0.84953248    -0.92600
O636        O  0.80378993  0.78568303  0.96016550    -0.92900
O637        O  0.83369886  0.74818269  0.92439874    -0.91700
C638        C  0.80658308  0.81474176  0.83279465     1.17400
H639        H  0.74816008  0.78629402  0.95015816     0.33300
H640        H  0.80251672  0.71298437  0.87933235     0.44200
H641        H  0.75093742  0.79070908  0.80502294     0.37700
H642        H  0.69488164  0.71415544  0.86817819     0.34200
H643        H  0.81462089  0.71636535  0.97864367     0.26000
H644        H  0.72740142  0.67353182  0.81193145     0.31900
H645        H  0.68494271  0.70466581  0.80604941     0.37800
H646        H  0.81068908  0.77890398  0.98249584     0.32300
H647        H  0.77863095  0.84402372  0.90882839     0.31100
H648        H  0.73446851  0.85266538  0.85621147     0.32800
H649        H  0.70355039  0.79736103  0.77869189     0.31800
H650        H  0.83676898  0.75152797  0.89933433     0.35800
H651        H  0.84227932  0.74447652  0.81708289     0.28500
H652        H  0.66959477  0.73978336  0.97308170     0.32700
H653        H  0.65788186  0.75290585  0.80058195     0.35600
H654        H  0.75201622  0.84290881  0.92877298     0.28200
H655        H  0.83008058  0.74332801  0.77943216     0.41100
H656        H  0.76398313  0.64745300  0.89864088     0.31100
H657        H  0.79319225  0.69834998  0.96235692     0.38800
H658        H  0.69449345  0.80451770  0.81638879     0.30600
H659        H  0.73487189  0.65067199  0.83693212     0.30700
H660        H  0.65620001  0.74399229  0.93662445     0.30900
Zr661      Zr  0.71201958  0.25020112  0.07589600     2.17500
O662        O  0.67162042  0.24567760  0.04237402    -0.51400
O663        O  0.72710902  0.25172257  0.01557270    -0.74600
O664        O  0.68874796  0.29157950  0.06897813    -0.81400
O665        O  0.71284058  0.17732153  0.09639602    -0.83200
O666        O  0.71362488  0.32333315  0.09315528    -0.78800
O667        O  0.68707021  0.20962175  0.07500429    -0.90400
O668        O  0.77152330  0.25096330  0.01358940    -0.76400
O669        O  0.74934607  0.27784930  0.07404495    -0.85900
O670        O  0.74972675  0.22276594  0.07288976    -0.85600
O671        O  0.70966640  0.27509634  0.12889405    -0.72300
O672        O  0.71137085  0.22375012  0.12730535    -0.84500
Zr673      Zr  0.78498137  0.25025410  0.17652807     2.26400
Zr674      Zr  0.74774165  0.30240415  0.12675227     2.06300
Zr675      Zr  0.74976120  0.19736806  0.12495130     2.10000
Zr676      Zr  0.78694281  0.25042462  0.07253922     1.78800
O677        O  0.73348988  0.16170614  0.16045840    -0.93300
O678        O  0.80798917  0.28672959  0.04310265    -0.41100
O679        O  0.78759067  0.22466882  0.12423657    -0.77700
O680        O  0.78612478  0.27596466  0.12406489    -0.96400
O681        O  0.74693798  0.27696564  0.17896489    -0.89700
O682        O  0.74831491  0.22159923  0.17806370    -0.92500
C683        C  0.74900982  0.25179984  0.99915874     1.01200
C684        C  0.69187229  0.18566414  0.08183835     1.14200
C685        C  0.69354908  0.31546222  0.07617891     1.04900
O686        O  0.76896805  0.33346619  0.08816110    -0.94700
O687        O  0.78184941  0.32357586  0.16042257    -0.90400
O688        O  0.80736208  0.29181344  0.18377505    -0.83600
C689        C  0.80228744  0.31568449  0.17679151     1.11600
O690        O  0.66310365  0.24286980  0.17347529    -0.96700
Zr691      Zr  0.71032343  0.24830872  0.17966976     1.88900
O692        O  0.77001953  0.24814793  0.23722579    -0.73300
O693        O  0.72761937  0.33540366  0.16330421    -0.52600
O694        O  0.68667774  0.28491343  0.20452631    -0.97200
O695        O  0.69366165  0.20894394  0.20707989    -0.54500
O696        O  0.72566969  0.25093545  0.23853944    -0.73800
C697        C  0.74800785  0.24955221  0.25338768     0.98500
O698        O  0.82634495  0.25530190  0.20775078    -0.62600
O699        O  0.76857334  0.16765231  0.08247069    -0.57400
O700        O  0.81023723  0.20990515  0.17871355    -0.94100
O701        O  0.78565928  0.17737007  0.15587934    -0.92600
O702        O  0.80672998  0.21223712  0.04621823    -0.92900
O703        O  0.83414374  0.25280654  0.08132363    -0.91700
C704        C  0.80608303  0.18594927  0.17140732     1.17400
H705        H  0.74916850  0.21174921  0.05258510     0.33300
H706        H  0.80165623  0.28652124  0.12231660     0.44200
H707        H  0.74926725  0.21007823  0.19787332     0.37700
H708        H  0.69379850  0.28515674  0.13072109     0.34200
H709        H  0.81569551  0.27921258  0.02172553     0.26000
H710        H  0.73052995  0.35189711  0.15066121     0.31900
H711        H  0.68152750  0.27917711  0.22816105     0.37800
H712        H  0.81742758  0.20435407  0.06496297     0.32300
H713        H  0.78747402  0.16687854  0.08812211     0.31100
H714        H  0.73997969  0.14585082  0.14880311     0.32800
H715        H  0.70638894  0.20448926  0.22560176     0.31800
H716        H  0.83659168  0.25008062  0.10664937     0.35800
H717        H  0.82505959  0.24373907  0.22827435     0.28500
H718        H  0.67356823  0.25736404  0.02206404     0.32700
H719        H  0.65598901  0.24289883  0.19745225     0.35600
H720        H  0.76175574  0.15037215  0.08909161     0.28200
H721        H  0.84002440  0.24746450  0.19283842     0.41100
H722        H  0.76115706  0.33036804  0.06492862     0.31100
H723        H  0.79337277  0.29766462  0.03462064     0.38800
H724        H  0.69601369  0.19527877  0.18929090     0.30600
H725        H  0.70853437  0.33228016  0.16148075     0.30700
H726        H  0.65765283  0.25361895  0.05670661     0.30900
Zr727      Zr  0.71195296  0.25034593  0.57635231     2.17500
O728        O  0.67137562  0.24752183  0.54283524    -0.51400
O729        O  0.72580096  0.25172925  0.51542979    -0.74600
O730        O  0.68869531  0.29199100  0.57189465    -0.81400
O731        O  0.71339864  0.17713170  0.59463884    -0.83200
O732        O  0.71493212  0.32366074  0.59363832    -0.78800
O733        O  0.68711209  0.20966066  0.57507194    -0.90400
O734        O  0.77014547  0.25376187  0.51329995    -0.76400
O735        O  0.74946279  0.27777749  0.57396518    -0.85900
O736        O  0.74945085  0.22274803  0.57242197    -0.85600
O737        O  0.71063553  0.27476810  0.62981427    -0.72300
O738        O  0.71167209  0.22378454  0.62785067    -0.84500
Zr739      Zr  0.78649308  0.24941421  0.67582421     2.26400
Zr740      Zr  0.74876197  0.30186634  0.62716499     2.06300
Zr741      Zr  0.74986246  0.19716603  0.62443958     2.10000
Zr742      Zr  0.78687014  0.25018155  0.57151161     1.78800
O743        O  0.73119124  0.16271863  0.65999410    -0.93300
O744        O  0.80917054  0.28776300  0.54686045    -0.41100
O745        O  0.78750324  0.22449780  0.62316630    -0.77700
O746        O  0.78739083  0.27538395  0.62352802    -0.96400
O747        O  0.74871458  0.27637734  0.67938825    -0.89700
O748        O  0.74955663  0.22111227  0.67781271    -0.92500
C749        C  0.74758674  0.25333043  0.49891592     1.01200
C750        C  0.69206632  0.18560007  0.58113882     1.14200
C751        C  0.69396209  0.31588357  0.57850775     1.04900
O752        O  0.76911729  0.33523780  0.59141235    -0.94700
O753        O  0.78311302  0.32306226  0.65999854    -0.90400
O754        O  0.80842371  0.29133832  0.68374596    -0.83600
C755        C  0.80342645  0.31520819  0.67660486     1.11600
O756        O  0.66431974  0.24478430  0.67559913    -0.96700
Zr757      Zr  0.71181259  0.24812779  0.68069896     1.88900
O758        O  0.77242575  0.24903318  0.73685079    -0.73300
O759        O  0.72665938  0.33189216  0.66622032    -0.52600
O760        O  0.69122571  0.28647581  0.70559672    -0.97200
O761        O  0.69289306  0.21017448  0.70923907    -0.54500
O762        O  0.72802540  0.24973131  0.73946564    -0.73800
C763        C  0.75066347  0.24962709  0.75365746     0.98500
O764        O  0.82935508  0.24580301  0.70366264    -0.62600
O765        O  0.77044428  0.16821993  0.58255245    -0.57400
O766        O  0.81109955  0.20860559  0.67755387    -0.94100
O767        O  0.78576334  0.17645206  0.65503630    -0.92600
O768        O  0.80533683  0.21191374  0.54364994    -0.92900
O769        O  0.83434315  0.24560560  0.57423909    -0.91700
C770        C  0.80655190  0.18469654  0.67015693     1.17400
H771        H  0.74860861  0.21183961  0.55203581     0.33300
H772        H  0.80299843  0.28583458  0.62176701     0.44200
H773        H  0.75071638  0.20955444  0.69756554     0.37700
H774        H  0.69490346  0.28494850  0.63231690     0.34200
H775        H  0.82104401  0.28067295  0.52886798     0.26000
H776        H  0.73123176  0.34930376  0.65721687     0.31900
H777        H  0.68664033  0.28150465  0.72973873     0.37800
H778        H  0.79664538  0.21074581  0.52066597     0.32300
H779        H  0.78939464  0.17206682  0.58426411     0.31100
H780        H  0.73901680  0.14656963  0.65077766     0.32800
H781        H  0.69221884  0.21447109  0.73433301     0.31800
H782        H  0.83976255  0.25644983  0.59422684     0.35800
H783        H  0.84192321  0.25392437  0.68732345     0.28500
H784        H  0.67322638  0.26011505  0.52350193     0.32700
H785        H  0.65743744  0.24668257  0.69955545     0.35600
H786        H  0.76859608  0.15071770  0.59285457     0.28200
H787        H  0.82885487  0.25746965  0.72409721     0.41100
H788        H  0.78634649  0.32792350  0.58488936     0.31100
H789        H  0.79551345  0.29703522  0.53341221     0.38800
H790        H  0.70631070  0.19640498  0.70748526     0.30600
H791        H  0.70775696  0.32995600  0.66105890     0.30700
H792        H  0.65747690  0.25477897  0.55791745     0.30900
Zr793      Zr  0.49934885  0.46245494  0.04904873     2.17500
O794        O  0.49563399  0.42176242  0.08124198    -0.51400
O795        O  0.49874053  0.47688999  0.10989410    -0.74600
O796        O  0.54129277  0.44000679  0.05606797    -0.81400
O797        O  0.42621281  0.46209013  0.02625648    -0.83200
O798        O  0.57373922  0.46531253  0.03393247    -0.78800
O799        O  0.45868220  0.43719696  0.04929237    -0.90400
O800        O  0.49835841  0.52085492  0.11150927    -0.76400
O801        O  0.52717739  0.49947317  0.05177490    -0.85900
O802        O  0.47129523  0.49947413  0.05136153    -0.85600
O803        O  0.52543084  0.46096360  0.99658310    -0.72300
O804        O  0.47336280  0.46144072  0.99692028    -0.84500
Zr805      Zr  0.50012321  0.53483936  0.94822358     2.26400
Zr806      Zr  0.55267719  0.49888443  0.99944508     2.06300
Zr807      Zr  0.44637152  0.49921567  0.99859411     2.10000
Zr808      Zr  0.49921348  0.53638931  0.05258683     1.78800
O809        O  0.41146600  0.48312647  0.96116575    -0.93300
O810        O  0.53836717  0.55497782  0.07893548    -0.41100
O811        O  0.47403961  0.53647658  0.00019773    -0.77700
O812        O  0.52551157  0.53679648  0.00121004    -0.96400
O813        O  0.52764723  0.49749282  0.94658540    -0.89700
O814        O  0.47161105  0.49816413  0.94615260    -0.92500
C815        C  0.49837879  0.49863883  0.12620544     1.01200
C816        C  0.43457661  0.44150104  0.04135966     1.14200
C817        C  0.56548929  0.44503166  0.04986450     1.04900
O818        O  0.58269511  0.52113681  0.03861781    -0.94700
O819        O  0.57451767  0.53204861  0.96501589    -0.90400
O820        O  0.54229550  0.55734433  0.94226480    -0.83600
C821        C  0.56649323  0.55236780  0.94890110     1.11600
O822        O  0.49793169  0.41404497  0.95385626    -0.96700
Zr823      Zr  0.49908183  0.46088189  0.94525515     1.88900
O824        O  0.49860900  0.51992195  0.88754515    -0.73300
O825        O  0.58734085  0.47927137  0.96476560    -0.52600
O826        O  0.53574886  0.43846532  0.91812916    -0.97200
O827        O  0.46016210  0.44188721  0.91861033    -0.54500
O828        O  0.49995075  0.47597277  0.88620460    -0.73800
C829        C  0.49917917  0.49812446  0.87136252     0.98500
O830        O  0.49756658  0.57370961  0.91197495    -0.62600
O831        O  0.41539191  0.51759479  0.03995332    -0.57400
O832        O  0.46011226  0.56110336  0.95020196    -0.94100
O833        O  0.42655272  0.53531906  0.96793175    -0.92600
O834        O  0.46061985  0.55740293  0.07693650    -0.92900
O835        O  0.49894856  0.58355756  0.05025057    -0.91700
C836        C  0.43564983  0.55654706  0.95546095     1.17400
H837        H  0.45983508  0.49876814  0.07133374     0.33300
H838        H  0.53584516  0.55237768  0.00315546     0.44200
H839        H  0.46018649  0.49892222  0.92611748     0.37700
H840        H  0.53587782  0.44544161  0.99476258     0.34200
H841        H  0.53188458  0.56537877  0.09877756     0.26000
H842        H  0.60301514  0.47940489  0.97997418     0.31900
H843        H  0.54808299  0.45240126  0.91143753     0.37800
H844        H  0.45334358  0.54483105  0.09384605     0.32300
H845        H  0.41792710  0.53657355  0.03820036     0.31100
H846        H  0.39538763  0.48434949  0.97546519     0.32800
H847        H  0.45353711  0.45507660  0.90205944     0.31800
H848        H  0.49065079  0.58775545  0.02762121     0.35800
H849        H  0.50384429  0.58813240  0.92678205     0.28500
H850        H  0.50752048  0.42343784  0.10150226     0.32700
H851        H  0.49531254  0.40646241  0.93044128     0.35600
H852        H  0.39796752  0.51448291  0.02943320     0.28200
H853        H  0.51113953  0.57168455  0.89377461     0.41100
H854        H  0.57996785  0.53982778  0.03398305     0.31100
H855        H  0.54743486  0.54012435  0.08999031     0.38800
H856        H  0.44697778  0.44150046  0.93748406     0.30600
H857        H  0.58244445  0.46075781  0.96291430     0.30700
H858        H  0.50372140  0.40831774  0.06633276     0.30900
Zr859      Zr  0.49990694  0.46355129  0.54737105     2.17500
O860        O  0.49699836  0.42094142  0.57490126    -0.51400
O861        O  0.50001973  0.47641400  0.60882145    -0.74600
O862        O  0.54241400  0.44172938  0.55379232    -0.81400
O863        O  0.42601683  0.46267650  0.52484095    -0.83200
O864        O  0.57437830  0.46742159  0.53129301    -0.78800
O865        O  0.45897431  0.43856962  0.54828393    -0.90400
O866        O  0.49982599  0.52034817  0.61172724    -0.76400
O867        O  0.52737757  0.50087168  0.55088706    -0.85900
O868        O  0.47127382  0.50010996  0.55140967    -0.85600
O869        O  0.52540694  0.46334000  0.49450631    -0.72300
O870        O  0.47371115  0.46349398  0.49540426    -0.84500
Zr871      Zr  0.49915123  0.53878425  0.45004564     2.26400
Zr872      Zr  0.55246179  0.50129248  0.49809371     2.06300
Zr873      Zr  0.44598505  0.50068395  0.49883489     2.10000
Zr874      Zr  0.49876857  0.53732905  0.55375320     1.78800
O875        O  0.41312967  0.48434539  0.45844738    -0.93300
O876        O  0.53637033  0.55802501  0.58118708    -0.41100
O877        O  0.47308553  0.53833615  0.50198859    -0.77700
O878        O  0.52504523  0.53899985  0.50269159    -0.96400
O879        O  0.52699802  0.50177652  0.44570422    -0.89700
O880        O  0.47111387  0.50179127  0.44627126    -0.92500
C881        C  0.49997481  0.49789692  0.62573310     1.01200
C882        C  0.43481165  0.44224867  0.53997287     1.14200
C883        C  0.56653159  0.44689495  0.54707249     1.04900
O884        O  0.58780468  0.52042521  0.53198571    -0.94700
O885        O  0.57345293  0.53678995  0.46699212    -0.90400
O886        O  0.54091887  0.56233990  0.44538880    -0.83600
C887        C  0.56516588  0.55755536  0.45213318     1.11600
O888        O  0.49723950  0.41770996  0.44666966    -0.96700
Zr889      Zr  0.49896845  0.46488154  0.44328385     1.88900
O890        O  0.49905951  0.52604571  0.38865565    -0.73300
O891        O  0.58246398  0.48000401  0.45802584    -0.52600
O892        O  0.53647733  0.44441281  0.41543958    -0.97200
O893        O  0.46013204  0.44752887  0.41448263    -0.54500
O894        O  0.50113997  0.48219785  0.38557156    -0.73800
C895        C  0.50022269  0.50464956  0.37167486     0.98500
O896        O  0.49450880  0.57951164  0.41819594    -0.62600
O897        O  0.41357348  0.51719176  0.53971097    -0.57400
O898        O  0.45803737  0.56346812  0.45077516    -0.94100
O899        O  0.42536345  0.53774908  0.47140096    -0.92600
O900        O  0.45988032  0.55680253  0.57949840    -0.92900
O901        O  0.49720273  0.58445658  0.55077393    -0.91700
C902        C  0.43381376  0.55881508  0.45769239     1.17400
H903        H  0.45997911  0.49886997  0.57150551     0.33300
H904        H  0.53529512  0.55453087  0.50571469     0.44200
H905        H  0.45970552  0.50300407  0.42626559     0.37700
H906        H  0.53585685  0.44785825  0.49215590     0.34200
H907        H  0.52919100  0.56666751  0.60210698     0.26000
H908        H  0.60002836  0.48285479  0.46827924     0.31900
H909        H  0.54655636  0.45888709  0.40508757     0.37800
H910        H  0.45451045  0.54478751  0.59829336     0.32300
H911        H  0.41852464  0.53552815  0.54343419     0.31100
H912        H  0.39640217  0.49192662  0.46655396     0.32800
H913        H  0.45537969  0.46033698  0.39632656     0.31800
H914        H  0.49565648  0.58838376  0.52561158     0.35800
H915        H  0.50210412  0.59304853  0.43341128     0.28500
H916        H  0.50858214  0.42166074  0.59557109     0.32700
H917        H  0.49588804  0.41162084  0.42229398     0.35600
H918        H  0.39705988  0.51806857  0.52622053     0.28200
H919        H  0.50666892  0.57825744  0.39820377     0.41100
H920        H  0.58117930  0.52072057  0.55618095     0.31100
H921        H  0.54693729  0.54352069  0.59057556     0.38800
H922        H  0.44603303  0.44893701  0.43203206     0.30600
H923        H  0.57920289  0.46122814  0.46115509     0.30700
H924        H  0.50561076  0.40867593  0.55872771     0.30900
Zr925      Zr  0.99708330  0.53665564  0.29795533     2.17500
O926        O  0.99932347  0.57783415  0.32906755    -0.51400
O927        O  0.99902237  0.52256358  0.35874498    -0.74600
O928        O  0.95442435  0.55758119  0.30568772    -0.81400
O929        O  0.07037178  0.53814079  0.27622811    -0.83200
O930        O  0.92232804  0.53201146  0.28334279    -0.78800
O931        O  0.03710879  0.56292430  0.29714697    -0.90400
O932        O  0.99788575  0.47862448  0.36100959    -0.76400
O933        O  0.96982230  0.49921066  0.30084619    -0.85900
O934        O  0.02582615  0.50015529  0.30034073    -0.85600
O935        O  0.97081989  0.53781718  0.24575532    -0.72300
O936        O  0.02280839  0.53819788  0.24578605    -0.84500
Zr937      Zr  0.99734428  0.46360352  0.19829456     2.26400
Zr938      Zr  0.94430183  0.49947291  0.24844973     2.06300
Zr939      Zr  0.05064479  0.50106564  0.24759218     2.10000
Zr940      Zr  0.99853295  0.46284531  0.30234483     1.78800
O941        O  0.08126859  0.51820495  0.20472227    -0.93300
O942        O  0.96082355  0.44200856  0.32931573    -0.41100
O943        O  0.02382730  0.46316454  0.25017615    -0.77700
O944        O  0.97188253  0.46182941  0.25127172    -0.96400
O945        O  0.96926012  0.50053041  0.19568855    -0.89700
O946        O  0.02496779  0.50100610  0.19547566    -0.92500
C947        C  0.99865097  0.50092343  0.37533324     1.01200
C948        C  0.06141587  0.55893546  0.29009330     1.14200
C949        C  0.93028278  0.55226543  0.29948651     1.04900
O950        O  0.91264937  0.47656406  0.28452740    -0.94700
O951        O  0.92300282  0.46636574  0.21393882    -0.90400
O952        O  0.95531337  0.44022164  0.19331348    -0.83600
C953        C  0.93105298  0.44550941  0.19933547     1.11600
O954        O  0.99698759  0.58487234  0.19944733    -0.96700
Zr955      Zr  0.99681713  0.53781672  0.19428940     1.88900
O956        O  0.99737685  0.47850886  0.13749593    -0.73300
O957        O  0.91164832  0.52068408  0.21183662    -0.52600
O958        O  0.95789338  0.55709231  0.16825286    -0.97200
O959        O  0.03409828  0.55897321  0.16667144    -0.54500
O960        O  0.99701909  0.52247027  0.13565556    -0.73800
C961        C  0.99723901  0.50026692  0.12110580     0.98500
O962        O  0.00162684  0.42449692  0.16300977    -0.62600
O963        O  0.08576350  0.48719518  0.28634935    -0.57400
O964        O  0.03828092  0.43842162  0.19879341    -0.94100
O965        O  0.07090336  0.46353660  0.22094273    -0.92600
O966        O  0.03637973  0.44499397  0.33262724    -0.92900
O967        O  0.00280293  0.41606148  0.29597872    -0.91700
C968        C  0.06248330  0.44280719  0.20629989     1.17400
H969        H  0.03737283  0.50100702  0.32024906     0.33300
H970        H  0.96164292  0.44621897  0.25367382     0.44200
H971        H  0.03622098  0.50034698  0.17529435     0.37700
H972        H  0.96013325  0.55319542  0.24406191     0.34200
H973        H  0.96808492  0.43275285  0.34976813     0.26000
H974        H  0.89551203  0.52122405  0.22609439     0.31900
H975        H  0.96441162  0.56675951  0.14772582     0.37800
H976        H  0.04873329  0.44013644  0.31390006     0.32300
H977        H  0.08246139  0.46856600  0.29061795     0.31100
H978        H  0.08353017  0.53671706  0.21073110     0.32800
H979        H  0.04289874  0.54526365  0.15298999     0.31800
H980        H  0.00106086  0.41295965  0.27064723     0.35800
H981        H  0.99345016  0.41037155  0.17667906     0.28500
H982        H  0.98706843  0.57629518  0.34893221     0.32700
H983        H  0.99594570  0.58816804  0.22479685     0.35600
H984        H  0.10172518  0.48755491  0.27173823     0.28200
H985        H  0.98984297  0.42708723  0.14280850     0.41100
H986        H  0.89582865  0.48561603  0.28037531     0.31100
H987        H  0.95051631  0.45641393  0.33940635     0.38800
H988        H  0.04636248  0.56268720  0.18600391     0.30600
H989        H  0.91740705  0.53897014  0.21033903     0.30700
H990        H  0.99131737  0.59087596  0.31336821     0.30900
Zr991      Zr  0.99839329  0.53665913  0.79724715     2.17500
O992        O  0.00270040  0.57885906  0.82535246    -0.51400
O993        O  0.99759393  0.52332353  0.85873477    -0.74600
O994        O  0.95644057  0.55973146  0.80284779    -0.81400
O995        O  0.07209862  0.53675689  0.77525298    -0.83200
O996        O  0.92419385  0.53449961  0.78010255    -0.78800
O997        O  0.03940402  0.56116438  0.79855996    -0.90400
O998        O  0.99562610  0.47944384  0.86119960    -0.76400
O999        O  0.97053019  0.49965878  0.80083581    -0.85900
O1000       O  0.02682531  0.49985305  0.80054761    -0.85600
O1001       O  0.97304183  0.53751949  0.74420249    -0.72300
O1002       O  0.02444784  0.53676749  0.74514250    -0.84500
Zr1003     Zr  0.99811056  0.46236257  0.69916971     2.26400
Zr1004     Zr  0.94553198  0.49999253  0.74792710     2.06300
Zr1005     Zr  0.05194326  0.49937432  0.74784320     2.10000
Zr1006     Zr  0.99895789  0.46296449  0.80321461     1.78800
O1007       O  0.08339111  0.51690146  0.70638710    -0.93300
O1008       O  0.96261501  0.43910999  0.82932988    -0.41100
O1009       O  0.02447521  0.46195233  0.75119888    -0.77700
O1010       O  0.97258066  0.46205088  0.75197554    -0.96400
O1011       O  0.97066517  0.49967293  0.69529823    -0.89700
O1012       O  0.02676154  0.49892340  0.69519599    -0.92500
C1013       C  0.99614197  0.50174581  0.87546355     1.01200
C1014       C  0.06349039  0.55721782  0.79036171     1.14200
C1015       C  0.93228756  0.55496700  0.79571487     1.04900
O1016       O  0.91286603  0.47851071  0.78396029    -0.94700
O1017       O  0.92374811  0.46628282  0.71470402    -0.90400
O1018       O  0.95592578  0.43968822  0.69475026    -0.83600
C1019       C  0.93174605  0.44520188  0.70057106     1.11600
O1020       O  0.99716552  0.58323375  0.69588517    -0.96700
Zr1021     Zr  0.99925322  0.53613823  0.69285757     1.88900
O1022       O  0.99755637  0.47547761  0.63784968    -0.73300
O1023       O  0.91380984  0.52270835  0.71159642    -0.52600
O1024       O  0.96310210  0.55559734  0.66070634    -0.97200
O1025       O  0.03837449  0.55655468  0.66898313    -0.54500
O1026       O  0.99927520  0.51934539  0.63472996    -0.73800
C1027       C  0.99821490  0.49692015  0.62082044     0.98500
O1028       O  0.00121215  0.42171991  0.66693052    -0.62600
O1029       O  0.08680822  0.48432127  0.78626728    -0.57400
O1030       O  0.03846388  0.43673874  0.69855010    -0.94100
O1031       O  0.07135463  0.46132005  0.72099098    -0.92600
O1032       O  0.03705884  0.44797878  0.83575992    -0.92900
O1033       O  0.00342403  0.41607428  0.79872104    -0.91700
C1034       C  0.06264396  0.44071393  0.70628668     1.17400
H1035       H  0.03818607  0.50087413  0.82063021     0.33300
H1036       H  0.96214081  0.44660483  0.75452490     0.44200
H1037       H  0.03807161  0.49764336  0.67512084     0.37700
H1038       H  0.96279085  0.55312526  0.74177006     0.34200
H1039       H  0.95575612  0.45045550  0.84796758     0.26000
H1040       H  0.91733863  0.51661451  0.68762985     0.31900
H1041       H  0.94888750  0.55757433  0.67799457     0.37800
H1042       H  0.04858800  0.43988385  0.81816166     0.32300
H1043       H  0.08412511  0.46538673  0.78837465     0.31100
H1044       H  0.10015649  0.51764959  0.71932385     0.32800
H1045       H  0.04770595  0.54259276  0.65643871     0.31800
H1046       H  0.01081089  0.41310887  0.77523685     0.35800
H1047       H  0.99459799  0.40811623  0.68287921     0.28500
H1048       H  0.99138356  0.57810187  0.84624631     0.32700
H1049       H  0.00607651  0.58764205  0.71800444     0.35600
H1050       H  0.10303229  0.48610743  0.77236450     0.28200
H1051       H  0.98797655  0.42286168  0.64812472     0.41100
H1052       H  0.91833452  0.48214427  0.80820039     0.31100
H1053       H  0.94855825  0.43899603  0.81159073     0.38800
H1054       H  0.04954404  0.56029801  0.68945313     0.30600
H1055       H  0.89670786  0.51490936  0.71772903     0.30700
H1056       H  0.99411583  0.59150165  0.80960539     0.30900
C1057       C  0.99998926  0.48687041  0.46621322     0.20200
C1058       C  0.00050610  0.47099229  0.49590752    -0.39600
C1059       C  0.99915755  0.48396766  0.52785569     0.19200
C1060       C  0.99749484  0.51070134  0.52984873     0.21900
C1061       C  0.99704997  0.52658214  0.50017103    -0.40100
C1062       C  0.99836815  0.51360711  0.46824364     0.20700
N1063       N  0.00052758  0.47920406  0.43292623    -0.33400
C1064       C  0.99921846  0.50116342  0.41355239    -0.11000
C1065       C  0.99795917  0.52309697  0.43464480    -0.29800
N1066       N  0.99664535  0.51837307  0.56310209    -0.46400
C1067       C  0.99783756  0.49644949  0.58256400    -0.05700
C1068       C  0.99931585  0.47449281  0.56150721    -0.23000
H1069       H  0.00176956  0.45009055  0.49422255     0.18800
H1070       H  0.99570470  0.54748119  0.50184941     0.17600
H1071       H  0.99655105  0.54314927  0.42652196     0.13900
H1072       H  0.00066467  0.45444746  0.56967217     0.13700
H1073       H  0.00150554  0.46012333  0.42395027     0.31900
H1074       H  0.99550834  0.53746343  0.57200896     0.34600
C1075       C  0.99561181  0.48794875  0.02957691     0.20200
C1076       C  0.99404498  0.47331299  0.99896547    -0.39600
C1077       C  0.99451763  0.48756784  0.96784903     0.19200
C1078       C  0.99633847  0.51434532  0.96708684     0.21900
C1079       C  0.99790958  0.52898576  0.99771817    -0.40100
C1080       C  0.99749480  0.51472406  0.02884187     0.20700
N1081       N  0.99552711  0.47907289  0.06253577    -0.33400
C1082       C  0.99732293  0.50043440  0.08284557    -0.11000
C1083       C  0.99865013  0.52296724  0.06274258    -0.29800
N1084       N  0.99675343  0.52317307  0.93408346    -0.46400
C1085       C  0.99527772  0.50177197  0.91377878    -0.05700
C1086       C  0.99380132  0.47927501  0.93396047    -0.23000
H1087       H  0.99266582  0.45237915  0.99931830     0.18800
H1088       H  0.99943080  0.54990922  0.99737113     0.17600
H1089       H  0.00010795  0.54277974  0.07178158     0.13900
H1090       H  0.99271775  0.45942340  0.92498315     0.13700
H1091       H  0.99412711  0.45979285  0.07066929     0.31900
H1092       H  0.99829261  0.54243495  0.92592583     0.34600
C1093       C  0.49719543  0.51052776  0.77972435     0.20200
C1094       C  0.49575336  0.52527860  0.74916023    -0.39600
C1095       C  0.49728650  0.51124456  0.71803176     0.19200
C1096       C  0.49985047  0.48453037  0.71714461     0.21900
C1097       C  0.50115190  0.46973180  0.74775051    -0.40100
C1098       C  0.49978230  0.48380999  0.77895114     0.20700
N1099       N  0.49666192  0.51928608  0.81268625    -0.33400
C1100       C  0.49891015  0.49792945  0.83303507    -0.11000
C1101       C  0.50086764  0.47549017  0.81290054    -0.29800
N1102       N  0.50120853  0.47597990  0.68408722    -0.46400
C1103       C  0.49957825  0.49753406  0.66398070    -0.05700
C1104       C  0.49710892  0.51980225  0.68426173    -0.23000
H1105       H  0.49385433  0.54617166  0.74955665     0.18800
H1106       H  0.50330815  0.44886296  0.74733760     0.17600
H1107       H  0.50292988  0.45571213  0.82194608     0.13900
H1108       H  0.49542958  0.53966954  0.67541869     0.13700
H1109       H  0.49490692  0.53852635  0.82078799     0.31900
H1110       H  0.50324541  0.45681643  0.67577912     0.34600
C1111       C  0.49928375  0.49035059  0.28105231     0.20200
C1112       C  0.49944060  0.47418736  0.25174218    -0.39600
C1113       C  0.49837555  0.48685361  0.21953751     0.19200
C1114       C  0.49700456  0.51357622  0.21692304     0.21900
C1115       C  0.49675901  0.52976642  0.24629842    -0.40100
C1116       C  0.49807656  0.51708801  0.27854685     0.20700
N1117       N  0.50046917  0.48294502  0.31439061    -0.33400
C1118       C  0.50005378  0.50502381  0.33345906    -0.11000
C1119       C  0.49859978  0.52685206  0.31204281    -0.29800
N1120       N  0.49661223  0.52088710  0.18343979    -0.46400
C1121       C  0.49785579  0.49873087  0.16451614    -0.05700
C1122       C  0.49893213  0.47701653  0.18614326    -0.23000
H1123       H  0.50058652  0.45329670  0.25389488     0.18800
H1124       H  0.49588060  0.55066939  0.24415528     0.17600
H1125       H  0.49787157  0.54698436  0.31987024     0.13900
H1126       H  0.50025740  0.45687307  0.17851124     0.13700
H1127       H  0.50138105  0.46389891  0.32360193     0.31900
H1128       H  0.49579987  0.53988398  0.17404049     0.34600
C1129       C  0.84185176  0.37237058  0.68688147     0.20200
C1130       C  0.84723579  0.39897421  0.68444707    -0.39600
C1131       C  0.87365268  0.40595055  0.68768237     0.19200
C1132       C  0.89326279  0.38777812  0.69257272     0.21900
C1133       C  0.88783900  0.36114378  0.69537784    -0.40100
C1134       C  0.86134053  0.35417198  0.69244201     0.20700
N1135       N  0.81852937  0.36078585  0.68275116    -0.33400
C1136       C  0.82306920  0.33498188  0.68566397    -0.11000
C1137       C  0.84954637  0.33008377  0.69212083    -0.29800
N1138       N  0.91670001  0.39945758  0.69545033    -0.46400
C1139       C  0.91192345  0.42526521  0.69299043    -0.05700
C1140       C  0.88527731  0.43005696  0.68806511    -0.23000
H1141       H  0.83196415  0.41319552  0.68023994     0.18800
H1142       H  0.90312756  0.34690570  0.69936433     0.17600
H1143       H  0.85911663  0.31140330  0.69392054     0.13900
H1144       H  0.87561530  0.44869412  0.68636656     0.13700
H1145       H  0.80079125  0.36984077  0.67670249     0.31900
H1146       H  0.93464369  0.39052511  0.70068953     0.34600
C1147       C  0.65582023  0.37333937  0.56587490     0.20200
C1148       C  0.65103225  0.40011789  0.56395240    -0.39600
C1149       C  0.62461398  0.40747619  0.56164394     0.19200
C1150       C  0.60447079  0.38953906  0.56173412     0.21900
C1151       C  0.60927859  0.36271435  0.56328007    -0.40100
C1152       C  0.63574517  0.35533328  0.56513425     0.20700
N1153       N  0.67914555  0.36150082  0.56925900    -0.33400
C1154       C  0.67401316  0.33571516  0.57035766    -0.11000
C1155       C  0.64712464  0.33109456  0.56764938    -0.29800
N1156       N  0.58114174  0.40147723  0.55865996    -0.46400
C1157       C  0.58644920  0.42718280  0.55598546    -0.05700
C1158       C  0.61339375  0.43165629  0.55780257    -0.23000
H1159       H  0.66674471  0.41419341  0.56409835     0.18800
H1160       H  0.59357471  0.34863066  0.56295134     0.17600
H1161       H  0.63718037  0.31259892  0.56909705     0.13900
H1162       H  0.62345595  0.45003192  0.55538117     0.13700
H1163       H  0.69740974  0.37045769  0.57156931     0.31900
H1164       H  0.56281977  0.39258555  0.55673134     0.34600
C1165       C  0.76258584  0.25231076  0.90816918     0.20200
C1166       C  0.77817932  0.25062576  0.87820186    -0.39600
C1167       C  0.76460255  0.25102789  0.84648259     0.19200
C1168       C  0.73759061  0.25300229  0.84488742     0.21900
C1169       C  0.72201997  0.25487354  0.87485046    -0.40100
C1170       C  0.73558025  0.25438739  0.90654407     0.20700
N1171       N  0.77067854  0.25144703  0.94135234    -0.33400
C1172       C  0.74867525  0.25284257  0.96099896    -0.11000
C1173       C  0.72636485  0.25486278  0.94024487    -0.29800
N1174       N  0.72936662  0.25257561  0.81173563    -0.46400
C1175       C  0.75126492  0.25042379  0.79197046    -0.05700
C1176       C  0.77367631  0.24939947  0.81273122    -0.23000
H1177       H  0.79927811  0.24882264  0.87951455     0.18800
H1178       H  0.70088854  0.25625871  0.87357658     0.17600
H1179       H  0.70617631  0.25607123  0.94865766     0.13900
H1180       H  0.79381374  0.24765162  0.80428961     0.13700
H1181       H  0.78997916  0.24958852  0.95007155     0.31900
H1182       H  0.70999052  0.25373824  0.80310166     0.34600
C1183       C  0.76057810  0.25132874  0.34496425     0.20200
C1184       C  0.77553759  0.25300586  0.37544502    -0.39600
C1185       C  0.76128900  0.25377572  0.40657801     0.19200
C1186       C  0.73419640  0.25281882  0.40752273     0.21900
C1187       C  0.71919104  0.25119437  0.37699601    -0.40100
C1188       C  0.73347139  0.25055412  0.34578654     0.20700
N1189       N  0.76944617  0.25064389  0.31201814    -0.33400
C1190       C  0.74777828  0.24962186  0.29170499    -0.11000
C1191       C  0.72501140  0.24944586  0.31185851    -0.29800
N1192       N  0.72549755  0.25315259  0.44059315    -0.46400
C1193       C  0.74732152  0.25426502  0.46067403    -0.05700
C1194       C  0.76992500  0.25485862  0.44034395    -0.23000
H1195       H  0.79672202  0.25363070  0.37498323     0.18800
H1196       H  0.69800810  0.25046567  0.37747984     0.17600
H1197       H  0.70492830  0.24887748  0.30283043     0.13900
H1198       H  0.79006176  0.25534816  0.44916514     0.13700
H1199       H  0.78895133  0.25122981  0.30387918     0.31900
H1200       H  0.70605912  0.25216981  0.44894930     0.34600
C1201       C  0.89235379  0.38824220  0.18936910     0.20200
C1202       C  0.88717334  0.36149486  0.18991968    -0.39600
C1203       C  0.86059941  0.35447065  0.18967383     0.19200
C1204       C  0.84072734  0.37270805  0.18857517     0.21900
C1205       C  0.84588135  0.39942934  0.18846980    -0.40100
C1206       C  0.87243545  0.40643844  0.18904422     0.20700
N1207       N  0.91591179  0.39991560  0.19054712    -0.33400
C1208       C  0.91097927  0.42574405  0.19153651    -0.11000
C1209       C  0.88404294  0.43052069  0.19055225    -0.29800
N1210       N  0.81724423  0.36111560  0.18601916    -0.46400
C1211       C  0.82213199  0.33528690  0.18563809    -0.05700
C1212       C  0.84895463  0.33036785  0.18827897    -0.23000
H1213       H  0.90269109  0.34720338  0.19032761     0.18800
H1214       H  0.83035537  0.41371278  0.18783310     0.17600
H1215       H  0.87424882  0.44908387  0.19230378     0.13900
H1216       H  0.85870558  0.31176818  0.18680541     0.13700
H1217       H  0.93414410  0.39084311  0.19255093     0.31900
H1218       H  0.79909728  0.37023474  0.18314462     0.34600
C1219       C  0.60381901  0.38788289  0.05948645     0.20200
C1220       C  0.60948487  0.36140310  0.05555735    -0.39600
C1221       C  0.63596490  0.35452898  0.05888355     0.19200
C1222       C  0.65521673  0.37267559  0.06586380     0.21900
C1223       C  0.64961800  0.39917451  0.06927091    -0.40100
C1224       C  0.62320987  0.40606138  0.06559713     0.20700
N1225       N  0.58039496  0.39947337  0.05605433    -0.33400
C1226       C  0.58500495  0.42525014  0.05908500    -0.11000
C1227       C  0.61147156  0.43011402  0.06527616    -0.29800
N1228       N  0.67847380  0.36107402  0.07052299    -0.46400
C1229       C  0.67409518  0.33531385  0.06662245    -0.05700
C1230       C  0.64784548  0.33048504  0.05876215    -0.23000
H1231       H  0.59437312  0.34719532  0.05046904     0.18800
H1232       H  0.66471907  0.41337553  0.07446400     0.17600
H1233       H  0.62101060  0.44877947  0.06738569     0.13900
H1234       H  0.63838974  0.31182672  0.05599659     0.13700
H1235       H  0.56267683  0.39056450  0.04959287     0.31900
H1236       H  0.69598952  0.37004575  0.07776271     0.34600
C1237       C  0.84233726  0.62777379  0.81065367     0.20200
C1238       C  0.84767839  0.60111325  0.81100991    -0.39600
C1239       C  0.87416212  0.59422138  0.80854851     0.19200
C1240       C  0.89395169  0.61247136  0.80644456     0.21900
C1241       C  0.88857185  0.63922771  0.80549329    -0.40100
C1242       C  0.86195091  0.64613565  0.80746877     0.20700
N1243       N  0.81888488  0.63917364  0.81465544    -0.33400
C1244       C  0.82340323  0.66505039  0.81382030    -0.11000
C1245       C  0.85004525  0.67017787  0.80892335    -0.29800
N1246       N  0.91746795  0.60077162  0.80401000    -0.46400
C1247       C  0.91250030  0.57491054  0.80383130    -0.05700
C1248       C  0.88569769  0.57013823  0.80665215    -0.23000
H1249       H  0.83230908  0.58675978  0.81315978     0.18800
H1250       H  0.90395352  0.65358584  0.80353141     0.17600
H1251       H  0.85959819  0.68890605  0.80888023     0.13900
H1252       H  0.87589571  0.55154589  0.80603643     0.13700
H1253       H  0.80102632  0.62989214  0.81918714     0.31900
H1254       H  0.93561163  0.60980001  0.80073593     0.34600
C1255       C  0.62379104  0.59133383  0.93741258     0.20200
C1256       C  0.65066176  0.59717263  0.93879783    -0.39600
C1257       C  0.65712010  0.62360614  0.93687014     0.19200
C1258       C  0.63823525  0.64275870  0.93425166     0.21900
C1259       C  0.61141133  0.63688296  0.93229973    -0.40100
C1260       C  0.60496242  0.61044889  0.93380290     0.20700
N1261       N  0.61249926  0.56793043  0.94105976    -0.33400
C1262       C  0.58626943  0.57212052  0.93971174    -0.11000
C1263       C  0.58084787  0.59839513  0.93464827    -0.29800
N1264       N  0.64940744  0.66630210  0.93188798    -0.46400
C1265       C  0.67562947  0.66213662  0.93208971    -0.05700
C1266       C  0.68119287  0.63572072  0.93542613    -0.23000
H1267       H  0.66544463  0.58223943  0.94126468     0.18800
H1268       H  0.59662706  0.65182013  0.92992888     0.17600
H1269       H  0.56182273  0.60765323  0.93429219     0.13900
H1270       H  0.70025145  0.62653194  0.93501056     0.13700
H1271       H  0.62202562  0.55036096  0.94586263     0.31900
H1272       H  0.63980034  0.68395376  0.92801059     0.34600
C1273       C  0.73869125  0.75629385  0.59415299     0.20200
C1274       C  0.72410401  0.76030849  0.62454386    -0.39600
C1275       C  0.73817617  0.75842579  0.65581632     0.19200
C1276       C  0.76474604  0.75306175  0.65688330     0.21900
C1277       C  0.77935397  0.74917979  0.62647906    -0.40100
C1278       C  0.76527378  0.75100162  0.59521175     0.20700
N1279       N  0.72993165  0.75682380  0.56112273    -0.33400
C1280       C  0.75118856  0.75194934  0.54109244    -0.11000
C1281       C  0.77353335  0.74819587  0.56144591    -0.29800
N1282       N  0.77328737  0.75143450  0.68996019    -0.46400
C1283       C  0.75189274  0.75563243  0.71000662    -0.05700
C1284       C  0.72971855  0.76021155  0.68961577    -0.23000
H1285       H  0.70329559  0.76430219  0.62392952     0.18800
H1286       H  0.80008442  0.74481473  0.62711028     0.17600
H1287       H  0.79324118  0.74410302  0.55265585     0.13900
H1288       H  0.70989821  0.76374140  0.69839890     0.13700
H1289       H  0.71082050  0.76052915  0.55274919     0.31900
H1290       H  0.79225801  0.74707392  0.69832874     0.34600
C1291       C  0.73675004  0.74650458  0.15743486     0.20200
C1292       C  0.72071958  0.74537599  0.12773732    -0.39600
C1293       C  0.73392083  0.74453489  0.09577194     0.19200
C1294       C  0.76098418  0.74471124  0.09377089     0.21900
C1295       C  0.77698638  0.74584433  0.12343598    -0.40100
C1296       C  0.76380663  0.74676285  0.15534322     0.20700
N1297       N  0.72901834  0.74768673  0.19073791    -0.33400
C1298       C  0.75128662  0.74871381  0.21001393    -0.11000
C1299       C  0.77342976  0.74819080  0.18884922    -0.29800
N1300       N  0.76881388  0.74432005  0.06050700    -0.46400
C1301       C  0.74665046  0.74404306  0.04101159    -0.05700
C1302       C  0.72440600  0.74407180  0.06208998    -0.23000
H1303       H  0.69955982  0.74537554  0.12940596     0.18800
H1304       H  0.79814230  0.74619163  0.12175683     0.17600
H1305       H  0.79374680  0.74873728  0.19687472     0.13900
H1306       H  0.70411812  0.74422936  0.05390414     0.13700
H1307       H  0.70972708  0.74776111  0.19978309     0.31900
H1308       H  0.78814246  0.74471716  0.05161752     0.34600
C1309       C  0.84184890  0.62628481  0.31655176     0.20200
C1310       C  0.84625686  0.59943666  0.31530281    -0.39600
C1311       C  0.87259366  0.59175045  0.31401791     0.19200
C1312       C  0.89294844  0.60945853  0.31463430     0.21900
C1313       C  0.88852077  0.63630940  0.31537218    -0.40100
C1314       C  0.86218057  0.64401424  0.31600404     0.20700
N1315       N  0.81868536  0.63848468  0.31896237    -0.33400
C1316       C  0.82424088  0.66419301  0.31946551    -0.11000
C1317       C  0.85118739  0.66841762  0.31744999    -0.29800
N1318       N  0.91613623  0.59731652  0.31219362    -0.46400
C1319       C  0.91054687  0.57173672  0.30913472    -0.05700
C1320       C  0.88355871  0.56747732  0.31031848    -0.23000
H1321       H  0.83034984  0.58557587  0.31504465     0.18800
H1322       H  0.90441969  0.65017887  0.31520088     0.17600
H1323       H  0.86139511  0.68677073  0.31887013     0.13900
H1324       H  0.87332674  0.54925905  0.30714672     0.13700
H1325       H  0.80026336  0.62982947  0.32114295     0.31900
H1326       H  0.93455045  0.60604288  0.31045145     0.34600
C1327       C  0.62238789  0.59667640  0.44037198     0.20200
C1328       C  0.64929788  0.60188399  0.43778445    -0.39600
C1329       C  0.65636612  0.62817224  0.43798014     0.19200
C1330       C  0.63811714  0.64787081  0.44098733     0.21900
C1331       C  0.61109655  0.64265145  0.44310354    -0.40100
C1332       C  0.60396683  0.61629565  0.44240780     0.20700
N1333       N  0.61081844  0.57328720  0.44201960    -0.33400
C1334       C  0.58474710  0.57791372  0.44470293    -0.11000
C1335       C  0.57969240  0.60454888  0.44474231    -0.29800
N1336       N  0.64992826  0.67123530  0.43951918    -0.46400
C1337       C  0.67583536  0.66632941  0.43488808    -0.05700
C1338       C  0.68051262  0.63966760  0.43395367    -0.23000
H1339       H  0.66369654  0.58657254  0.43560307     0.18800
H1340       H  0.59668098  0.65796641  0.44498357     0.17600
H1341       H  0.56093673  0.61401085  0.44801996     0.13900
H1342       H  0.69898535  0.62999624  0.42924780     0.13700
H1343       H  0.62015274  0.55526568  0.44226669     0.31900
H1344       H  0.64077057  0.68934355  0.43959986     0.34600
C1345       C  0.62148409  0.90309667  0.44542264     0.20200
C1346       C  0.64834438  0.89773694  0.44498279    -0.39600
C1347       C  0.65515097  0.87233533  0.43621004     0.19200
C1348       C  0.63663548  0.85353234  0.42877618     0.21900
C1349       C  0.60966547  0.85900749  0.42869136    -0.40100
C1350       C  0.60283228  0.88459122  0.43726376     0.20700
N1351       N  0.61013486  0.92563195  0.45386577    -0.33400
C1352       C  0.58401685  0.92165500  0.45089050    -0.11000
C1353       C  0.57862610  0.89629283  0.44042582    -0.29800
N1354       N  0.64832475  0.83072543  0.42207643    -0.46400
C1355       C  0.67439523  0.83530040  0.42489217    -0.05700
C1356       C  0.67940518  0.86102559  0.43345199    -0.23000
H1357       H  0.66288633  0.91226011  0.45126589     0.18800
H1358       H  0.59511730  0.84441788  0.42271955     0.17600
H1359       H  0.55961457  0.88747462  0.43656057     0.13900
H1360       H  0.69827246  0.87017055  0.43721666     0.13700
H1361       H  0.61961823  0.94263159  0.46155252     0.31900
H1362       H  0.63922577  0.81331347  0.41530242     0.34600
C1363       C  0.60200610  0.11313624  0.56111840     0.20200
C1364       C  0.60708075  0.13994982  0.56135626    -0.39600
C1365       C  0.63346733  0.14705241  0.56579466     0.19200
C1366       C  0.65305410  0.12878961  0.57027831     0.21900
C1367       C  0.64803778  0.10210937  0.56964264    -0.40100
C1368       C  0.62186628  0.09504139  0.56454804     0.20700
N1369       N  0.57884452  0.10124246  0.55615061    -0.33400
C1370       C  0.58423223  0.07547370  0.55564670    -0.11000
C1371       C  0.61083426  0.07089502  0.56084916    -0.29800
N1372       N  0.67630145  0.14028199  0.57521573    -0.46400
C1373       C  0.67173162  0.16612870  0.57360971    -0.05700
C1374       C  0.64521905  0.17117128  0.56749185    -0.23000
H1375       H  0.59169408  0.15418337  0.55807928     0.18800
H1376       H  0.66345881  0.08787075  0.57257451     0.17600
H1377       H  0.62083687  0.05239429  0.56103555     0.13900
H1378       H  0.63572587  0.18989131  0.56580538     0.13700
H1379       H  0.56071978  0.11009502  0.55186286     0.31900
H1380       H  0.69416209  0.13105029  0.58001652     0.34600
C1381       C  0.49981572  0.98662435  0.78445157     0.20200
C1382       C  0.49864298  0.97204175  0.75378817    -0.39600
C1383       C  0.49910547  0.98635418  0.72275747     0.19200
C1384       C  0.50068279  0.01314602  0.72205385     0.21900
C1385       C  0.50170912  0.02776836  0.75276567    -0.40100
C1386       C  0.50117218  0.01343436  0.78385548     0.20700
N1387       N  0.49957256  0.97765710  0.81735707    -0.33400
C1388       C  0.50059677  0.99899764  0.83781455    -0.11000
C1389       C  0.50166342  0.02160415  0.81783792    -0.29800
N1390       N  0.50111070  0.02198167  0.68904022    -0.46400
C1391       C  0.49977164  0.00053719  0.66876108    -0.05700
C1392       C  0.49841747  0.97806057  0.68891299    -0.23000
H1393       H  0.49747907  0.95109475  0.75403603     0.18800
H1394       H  0.50284585  0.04871705  0.75251346     0.17600
H1395       H  0.50252329  0.04141221  0.82701564     0.13900
H1396       H  0.49722747  0.95821657  0.67993728     0.13700
H1397       H  0.49851346  0.95832163  0.82534839     0.31900
H1398       H  0.50233339  0.04126522  0.68087056     0.34600
C1399       C  0.49900328  0.01035512  0.22202997     0.20200
C1400       C  0.49839123  0.02495641  0.25267996    -0.39600
C1401       C  0.49899213  0.01062535  0.28367673     0.19200
C1402       C  0.50005410  0.98380258  0.28433359     0.21900
C1403       C  0.50069027  0.96917826  0.25363976    -0.40100
C1404       C  0.50012595  0.98352976  0.22260293     0.20700
N1405       N  0.49864860  0.01933192  0.18915694    -0.33400
C1406       C  0.49952708  0.99798371  0.16874173    -0.11000
C1407       C  0.50048468  0.97535571  0.18866142    -0.29800
N1408       N  0.50044836  0.97492258  0.31730291    -0.46400
C1409       C  0.49970016  0.99636591  0.33760685    -0.05700
C1410       C  0.49878074  0.01890296  0.31752522    -0.23000
H1411       H  0.49754601  0.04591960  0.25244220     0.18800
H1412       H  0.50157194  0.94821664  0.25387083     0.17600
H1413       H  0.50133965  0.95554656  0.17948021     0.13900
H1414       H  0.49806541  0.03875844  0.32654879     0.13700
H1415       H  0.49781337  0.03867751  0.18115766     0.31900
H1416       H  0.50127510  0.95560734  0.32542810     0.34600
C1417       C  0.65283059  0.86920661  0.93544435     0.20200
C1418       C  0.64833791  0.89588346  0.93860245    -0.39600
C1419       C  0.62213671  0.90320551  0.94269727     0.19200
C1420       C  0.60187665  0.88537354  0.94291763     0.21900
C1421       C  0.60643659  0.85859260  0.94034804    -0.40100
C1422       C  0.63276344  0.85119478  0.93689660     0.20700
N1423       N  0.67590285  0.85748998  0.93018786    -0.33400
C1424       C  0.67066433  0.83178256  0.92864320    -0.11000
C1425       C  0.64396818  0.82699258  0.93309473    -0.29800
N1426       N  0.57874691  0.89735329  0.94730929    -0.46400
C1427       C  0.58447204  0.92287320  0.95073089    -0.05700
C1428       C  0.61131840  0.92728887  0.94793055    -0.23000
H1429       H  0.66410593  0.90989718  0.93800532     0.18800
H1430       H  0.59067553  0.84458100  0.94104109     0.17600
H1431       H  0.63401997  0.80848570  0.93212049     0.13900
H1432       H  0.62155812  0.94558096  0.95020536     0.13700
H1433       H  0.69409699  0.86648670  0.92723164     0.31900
H1434       H  0.56035093  0.88862794  0.94932333     0.34600
C1435       C  0.62002427  0.09651584  0.05956233     0.20200
C1436       C  0.64683989  0.10221322  0.06008944    -0.39600
C1437       C  0.65325099  0.12834006  0.06482497     0.19200
C1438       C  0.63443390  0.14749392  0.06822839     0.21900
C1439       C  0.60751903  0.14173214  0.06806338    -0.40100
C1440       C  0.60106803  0.11543716  0.06380833     0.20700
N1441       N  0.60899838  0.07324357  0.05444755    -0.33400
C1442       C  0.58277521  0.07717976  0.05558165    -0.11000
C1443       C  0.57701198  0.10325393  0.06173458    -0.29800
N1444       N  0.64577231  0.17076485  0.07303739    -0.46400
C1445       C  0.67192531  0.16616405  0.07334747    -0.05700
C1446       C  0.67731150  0.13996929  0.06822672    -0.23000
H1447       H  0.66164386  0.08735099  0.05719789     0.18800
H1448       H  0.59272838  0.15658090  0.07113465     0.17600
H1449       H  0.55787302  0.11222733  0.06294611     0.13900
H1450       H  0.69629017  0.13060863  0.06802434     0.13700
H1451       H  0.61874937  0.05580072  0.04968983     0.31900
H1452       H  0.63634023  0.18842857  0.07742149     0.34600
C1453       C  0.13457885  0.64805304  0.81002647     0.20200
C1454       C  0.10794920  0.64273617  0.80392150    -0.39600
C1455       C  0.10114526  0.61633131  0.80258820     0.19200
C1456       C  0.11956906  0.59682199  0.80634766     0.21900
C1457       C  0.14602500  0.60211882  0.81284209    -0.40100
C1458       C  0.15270666  0.62839761  0.81473408     0.20700
N1459       N  0.14605314  0.67142661  0.81354438    -0.33400
C1460       C  0.17154277  0.66643910  0.82107123    -0.11000
C1461       C  0.17635690  0.63984419  0.82195855    -0.29800
N1462       N  0.10842564  0.57338832  0.80300552    -0.46400
C1463       C  0.08259568  0.57787469  0.79766221    -0.05700
C1464       C  0.07723178  0.60443213  0.79737046    -0.23000
H1465       H  0.09358075  0.65798600  0.80074011     0.18800
H1466       H  0.16034966  0.58687273  0.81641836     0.17600
H1467       H  0.19464371  0.63016764  0.82789954     0.13900
H1468       H  0.05852938  0.61373484  0.79285793     0.13700
H1469       H  0.13696711  0.68954193  0.81213804     0.31900
H1470       H  0.11782510  0.55541807  0.80417968     0.34600
C1471       C  0.36404461  0.64683352  0.93478115     0.20200
C1472       C  0.39059579  0.64172819  0.94169217    -0.39600
C1473       C  0.39772696  0.61541227  0.94245634     0.19200
C1474       C  0.37967549  0.59576894  0.93725731     0.21900
C1475       C  0.35329097  0.60085844  0.92989622    -0.40100
C1476       C  0.34627231  0.62708597  0.92872695     0.20700
N1477       N  0.35226788  0.67012605  0.93226771    -0.33400
C1478       C  0.32692213  0.66504446  0.92413001    -0.11000
C1479       C  0.32250827  0.63843090  0.92170136    -0.29800
N1480       N  0.39101607  0.57243576  0.94070170    -0.46400
C1481       C  0.41659001  0.57714440  0.94765752    -0.05700
C1482       C  0.42160726  0.60373529  0.94879681    -0.23000
H1483       H  0.40463757  0.65707711  0.94616611     0.18800
H1484       H  0.33923386  0.58550922  0.92546509     0.17600
H1485       H  0.30436889  0.62870058  0.91521772     0.13900
H1486       H  0.44000657  0.61318867  0.95465603     0.13700
H1487       H  0.36103148  0.68829839  0.93505014     0.31900
H1488       H  0.38187596  0.55438338  0.93870344     0.34600
C1489       C  0.36239802  0.85400649  0.93669254     0.20200
C1490       C  0.38931484  0.85972841  0.93663226    -0.39600
C1491       C  0.39581173  0.88619015  0.93754274     0.19200
C1492       C  0.37694241  0.90543532  0.93882304     0.21900
C1493       C  0.35008393  0.89973966  0.93834161    -0.40100
C1494       C  0.34360694  0.87334112  0.93709350     0.20700
N1495       N  0.35107545  0.83049049  0.93453086    -0.33400
C1496       C  0.32491070  0.83496515  0.93278041    -0.11000
C1497       C  0.31955381  0.86145978  0.93456089    -0.29800
N1498       N  0.38808902  0.92889500  0.94221697    -0.46400
C1499       C  0.41428720  0.92463194  0.94294119    -0.05700
C1500       C  0.41987120  0.89824768  0.93962626    -0.23000
H1501       H  0.40410341  0.84470147  0.93606266     0.18800
H1502       H  0.33529653  0.91476625  0.93899779     0.17600
H1503       H  0.30064839  0.87083408  0.93246441     0.13900
H1504       H  0.43887380  0.88900266  0.94111031     0.13700
H1505       H  0.36060130  0.81265912  0.93216026     0.31900
H1506       H  0.37843461  0.94658769  0.94540474     0.34600
C1507       C  0.25921283  0.75324385  0.59329395     0.20200
C1508       C  0.27428838  0.75346434  0.62377421    -0.39600
C1509       C  0.26018778  0.75201471  0.65500057     0.19200
C1510       C  0.23312973  0.75039212  0.65601695     0.21900
C1511       C  0.21802223  0.75013271  0.62549102    -0.40100
C1512       C  0.23214489  0.75169073  0.59419350     0.20700
N1513       N  0.26795812  0.75414339  0.56029302    -0.33400
C1514       C  0.24627874  0.75310612  0.53999376    -0.11000
C1515       C  0.22358491  0.75171013  0.56024089    -0.29800
N1516       N  0.22451973  0.74947682  0.68912321    -0.46400
C1517       C  0.24634862  0.75059970  0.70917211    -0.05700
C1518       C  0.26889893  0.75211106  0.68877520    -0.23000
H1519       H  0.29544514  0.75470212  0.62323799     0.18800
H1520       H  0.19686827  0.74885760  0.62604456     0.17600
H1521       H  0.20351747  0.75047722  0.55127632     0.13900
H1522       H  0.28901997  0.75332059  0.69754255     0.13700
H1523       H  0.28743589  0.75514572  0.55211438     0.31900
H1524       H  0.20510370  0.74828233  0.69751337     0.34600
C1525       C  0.26367479  0.75027693  0.15593895     0.20200
C1526       C  0.27934200  0.74726210  0.12620985    -0.39600
C1527       C  0.26602249  0.74814855  0.09432754     0.19200
C1528       C  0.23920175  0.75183822  0.09243575     0.21900
C1529       C  0.22357622  0.75495348  0.12209561    -0.40100
C1530       C  0.23685390  0.75392743  0.15393030     0.20700
N1531       N  0.27149792  0.74958315  0.18924378    -0.33400
C1532       C  0.24950307  0.75262458  0.20858215    -0.11000
C1533       C  0.22746732  0.75549870  0.18747556    -0.29800
N1534       N  0.23117055  0.75195386  0.05928466    -0.46400
C1535       C  0.25297600  0.74844398  0.03978213    -0.05700
C1536       C  0.27519290  0.74591987  0.06067194    -0.23000
H1537       H  0.30029264  0.74428572  0.12782015     0.18800
H1538       H  0.20259889  0.75775115  0.12048027     0.17600
H1539       H  0.20733643  0.75808656  0.19556677     0.13900
H1540       H  0.29524099  0.74306177  0.05238682     0.13700
H1541       H  0.29060905  0.74682322  0.19825922     0.31900
H1542       H  0.21198785  0.75459558  0.05046567     0.34600
C1543       C  0.11763170  0.59872233  0.30507091     0.20200
C1544       C  0.14428434  0.60400030  0.31018490    -0.39600
C1545       C  0.15101327  0.63026521  0.31275847     0.19200
C1546       C  0.13271411  0.64995041  0.31001019     0.21900
C1547       C  0.10585486  0.64462298  0.30537890    -0.40100
C1548       C  0.09903115  0.61820341  0.30326184     0.20700
N1549       N  0.10649576  0.57532631  0.30118289    -0.33400
C1550       C  0.08048810  0.57971959  0.29735117    -0.11000
C1551       C  0.07499731  0.60625812  0.29867100    -0.29800
N1552       N  0.14434094  0.67330292  0.31363658    -0.46400
C1553       C  0.17014020  0.66830353  0.31930951    -0.05700
C1554       C  0.17492296  0.64166623  0.31887357    -0.23000
H1555       H  0.15875318  0.58872837  0.31214700     0.18800
H1556       H  0.09135236  0.65987569  0.30368464     0.17600
H1557       H  0.05612858  0.61554819  0.29557162     0.13900
H1558       H  0.19340277  0.63189965  0.32325863     0.13700
H1559       H  0.11605137  0.55741755  0.30093054     0.31900
H1560       H  0.13517749  0.69140551  0.31354867     0.34600
C1561       C  0.36151784  0.64869638  0.43621212     0.20200
C1562       C  0.38852247  0.64334589  0.43747018    -0.39600
C1563       C  0.39534775  0.61715782  0.44204864     0.19200
C1564       C  0.37665873  0.59788833  0.44538791     0.21900
C1565       C  0.34973419  0.60317031  0.44364072    -0.40100
C1566       C  0.34293925  0.62925854  0.43878017     0.20700
N1567       N  0.34991362  0.67186101  0.43132980    -0.33400
C1568       C  0.32380085  0.66702391  0.43016565    -0.11000
C1569       C  0.31872787  0.64066945  0.43477191    -0.29800
N1570       N  0.38803862  0.57474543  0.45066968    -0.46400
C1571       C  0.41422055  0.57914801  0.45045831    -0.05700
C1572       C  0.41957854  0.60538824  0.44494687    -0.23000
H1573       H  0.40312588  0.65843944  0.43504754     0.18800
H1574       H  0.33513483  0.58805042  0.44583655     0.17600
H1575       H  0.29987831  0.63107935  0.43433612     0.13900
H1576       H  0.43857285  0.61467915  0.44424480     0.13700
H1577       H  0.35920446  0.68967449  0.42750661     0.31900
H1578       H  0.37853695  0.55704966  0.45459476     0.34600
C1579       C  0.37545791  0.90496198  0.44678744     0.20200
C1580       C  0.34869227  0.89923486  0.44950305    -0.39600
C1581       C  0.34182395  0.87329374  0.44389783     0.19200
C1582       C  0.36026638  0.85437287  0.43674033     0.21900
C1583       C  0.38707170  0.86015316  0.43367778    -0.40100
C1584       C  0.39391341  0.88624007  0.43881737     0.20700
N1585       N  0.38694084  0.92803803  0.45187298    -0.33400
C1586       C  0.41294018  0.92415587  0.44699162    -0.11000
C1587       C  0.41806170  0.89830926  0.43855259    -0.29800
N1588       N  0.34857877  0.83134256  0.43167824    -0.46400
C1589       C  0.32251331  0.83578718  0.43496059    -0.05700
C1590       C  0.31753804  0.86172223  0.44258533    -0.23000
H1591       H  0.33424277  0.91395774  0.45529820     0.18800
H1592       H  0.40149248  0.84546580  0.42759396     0.17600
H1593       H  0.43697471  0.88932597  0.43451735     0.13900
H1594       H  0.29865794  0.87102598  0.44540120     0.13700
H1595       H  0.37770279  0.94522483  0.45932138     0.31900
H1596       H  0.35762045  0.81400884  0.42441434     0.34600
C1597       C  0.11916313  0.40088772  0.69417665     0.20200
C1598       C  0.14600042  0.39537163  0.69266465    -0.39600
C1599       C  0.15252319  0.36942804  0.68655921     0.19200
C1600       C  0.13378973  0.35022663  0.68294801     0.21900
C1601       C  0.10682242  0.35581316  0.68405560    -0.40100
C1602       C  0.10025658  0.38197648  0.68954086     0.20700
N1603       N  0.10809512  0.42405622  0.70000107    -0.33400
C1604       C  0.08187873  0.42012497  0.69880351    -0.11000
C1605       C  0.07616397  0.39410018  0.69204625    -0.29800
N1606       N  0.14523700  0.32718011  0.67674142    -0.46400
C1607       C  0.17135172  0.33200277  0.67563631    -0.05700
C1608       C  0.17661294  0.35809907  0.68171505    -0.23000
H1609       H  0.16074445  0.41027678  0.69563166     0.18800
H1610       H  0.09208365  0.34096602  0.68057940     0.17600
H1611       H  0.05703489  0.38516438  0.69025421     0.13900
H1612       H  0.19551184  0.36760141  0.68171580     0.13700
H1613       H  0.11783209  0.44149021  0.70484433     0.31900
H1614       H  0.13586332  0.30953657  0.67201566     0.34600
C1615       C  0.37866244  0.40221754  0.55418979     0.20200
C1616       C  0.35193739  0.39671501  0.55777550    -0.39600
C1617       C  0.34550668  0.37047704  0.56141038     0.19200
C1618       C  0.36417444  0.35101951  0.56113932     0.21900
C1619       C  0.39106692  0.35656929  0.55803475    -0.40100
C1620       C  0.39756766  0.38297851  0.55475508     0.20700
N1621       N  0.38959746  0.42561838  0.54948801    -0.33400
C1622       C  0.41575347  0.42147114  0.54740856    -0.11000
C1623       C  0.42154612  0.39509436  0.55079160    -0.29800
N1624       N  0.35279690  0.32766056  0.56544019    -0.46400
C1625       C  0.32680521  0.33250618  0.56910174    -0.05700
C1626       C  0.32157654  0.35895302  0.56659029    -0.23000
H1627       H  0.33719853  0.41179825  0.55781291     0.18800
H1628       H  0.40580866  0.34149134  0.55822718     0.17600
H1629       H  0.44060504  0.38597576  0.54935454     0.13900
H1630       H  0.30279776  0.36851623  0.56905818     0.13700
H1631       H  0.37981499  0.44334815  0.54749268     0.31900
H1632       H  0.36218482  0.30971025  0.56714981     0.34600
C1633       C  0.36233452  0.14426075  0.56221585     0.20200
C1634       C  0.38932170  0.13896740  0.56080035    -0.39600
C1635       C  0.39629062  0.11263385  0.56234973     0.19200
C1636       C  0.37776741  0.09310882  0.56460475     0.21900
C1637       C  0.35089659  0.09840925  0.56659349    -0.40100
C1638       C  0.34397005  0.12468249  0.56545755     0.20700
N1639       N  0.35062238  0.16765194  0.56255793    -0.33400
C1640       C  0.32467520  0.16288008  0.56674865    -0.11000
C1641       C  0.31983389  0.13628357  0.56846271    -0.29800
N1642       N  0.38915764  0.06967926  0.56297368    -0.46400
C1643       C  0.41516417  0.07425263  0.55992006    -0.05700
C1644       C  0.42044428  0.10081401  0.55992217    -0.23000
H1645       H  0.40380096  0.15419422  0.55854604     0.18800
H1646       H  0.33642024  0.08317243  0.56875476     0.17600
H1647       H  0.30126793  0.12675606  0.57306104     0.13900
H1648       H  0.43920204  0.11016722  0.55610511     0.13700
H1649       H  0.35984199  0.18572066  0.56207449     0.31900
H1650       H  0.37973965  0.05170950  0.56251282     0.34600
C1651       C  0.23765161  0.24665060  0.90365273     0.20200
C1652       C  0.22193429  0.24816231  0.87375757    -0.39600
C1653       C  0.23541637  0.24914014  0.84208171     0.19200
C1654       C  0.26248691  0.24854668  0.84042104     0.21900
C1655       C  0.27823234  0.24697236  0.87033815    -0.40100
C1656       C  0.26473046  0.24613790  0.90206954     0.20700
N1657       N  0.22951638  0.24627429  0.93678437    -0.33400
C1658       C  0.25150626  0.24573029  0.95659066    -0.11000
C1659       C  0.27393871  0.24548822  0.93587338    -0.29800
N1660       N  0.27053714  0.24961504  0.80725367    -0.46400
C1661       C  0.24846413  0.25081900  0.78762324    -0.05700
C1662       C  0.22611464  0.25063017  0.80842368    -0.23000
H1663       H  0.20076975  0.24873034  0.87510471     0.18800
H1664       H  0.29940396  0.24665543  0.86899757     0.17600
H1665       H  0.29415547  0.24534910  0.94437334     0.13900
H1666       H  0.20587382  0.25122736  0.80006026     0.13700
H1667       H  0.21012083  0.24686710  0.94538841     0.31900
H1668       H  0.28990059  0.24922423  0.79850304     0.34600
C1669       C  0.23537327  0.24950811  0.34136696     0.20200
C1670       C  0.22085990  0.24859577  0.37227647    -0.39600
C1671       C  0.23561657  0.24735458  0.40306579     0.19200
C1672       C  0.26274062  0.24703905  0.40329294     0.21900
C1673       C  0.27725171  0.24787157  0.37238695    -0.40100
C1674       C  0.26249542  0.24914610  0.34160205     0.20700
N1675       N  0.22608802  0.25060709  0.30855707    -0.33400
C1676       C  0.24756821  0.25089550  0.28787169    -0.11000
C1677       C  0.27053683  0.25007289  0.30760443    -0.29800
N1678       N  0.27203783  0.24637754  0.43610441    -0.46400
C1679       C  0.25056415  0.24632506  0.45679311    -0.05700
C1680       C  0.22758317  0.24680277  0.43708238    -0.23000
H1681       H  0.19966471  0.24893701  0.37239436     0.18800
H1682       H  0.29844913  0.24766279  0.37228214     0.17600
H1683       H  0.29052564  0.24984827  0.29824023     0.13900
H1684       H  0.20760171  0.24715804  0.44646859     0.13700
H1685       H  0.20648254  0.25087582  0.30076845     0.31900
H1686       H  0.29164650  0.24631309  0.44388901     0.34600
C1687       C  0.10012943  0.38558142  0.18863039     0.20200
C1688       C  0.10508107  0.35895369  0.18424928    -0.39600
C1689       C  0.13152412  0.35198837  0.17996559     0.19200
C1690       C  0.15139284  0.37023135  0.17949735     0.21900
C1691       C  0.14647703  0.39676743  0.18405440    -0.40100
C1692       C  0.12015958  0.40365152  0.18889149     0.20700
N1693       N  0.07683003  0.39718699  0.19397287    -0.33400
C1694       C  0.08218074  0.42276751  0.19810799    -0.11000
C1695       C  0.10899963  0.42748390  0.19514667    -0.29800
N1696       N  0.17473325  0.35884277  0.17431393    -0.46400
C1697       C  0.16986273  0.33307829  0.17176593    -0.05700
C1698       C  0.14310777  0.32801271  0.17533008    -0.23000
H1699       H  0.08953320  0.34470264  0.18442590     0.18800
H1700       H  0.16204365  0.41100440  0.18411061     0.17600
H1701       H  0.11900278  0.44589216  0.19754276     0.13900
H1702       H  0.13340186  0.30940219  0.17381481     0.13700
H1703       H  0.05853805  0.38820783  0.19559274     0.31900
H1704       H  0.19289259  0.36806474  0.17245778     0.34600
C1705       C  0.34594812  0.36832243  0.06413736     0.20200
C1706       C  0.35062888  0.39474688  0.05850710    -0.39600
C1707       C  0.37697895  0.40188199  0.05553804     0.19200
C1708       C  0.39722316  0.38413872  0.05827616     0.21900
C1709       C  0.39249814  0.35755714  0.06344191    -0.40100
C1710       C  0.36603124  0.35034001  0.06610788     0.20700
N1711       N  0.32262754  0.35685316  0.06856388    -0.33400
C1712       C  0.32772405  0.33128914  0.07296938    -0.11000
C1713       C  0.35460387  0.32638909  0.07149501    -0.29800
N1714       N  0.42053873  0.39602093  0.05467114    -0.46400
C1715       C  0.41495507  0.42141626  0.04916862    -0.05700
C1716       C  0.38800403  0.42575956  0.04950634    -0.23000
H1717       H  0.33488920  0.40874272  0.05663374     0.18800
H1718       H  0.40823316  0.34356326  0.06529781     0.17600
H1719       H  0.36443937  0.30796682  0.07485356     0.13900
H1720       H  0.37784243  0.44394031  0.04548202     0.13700
H1721       H  0.30431934  0.36590257  0.06872126     0.31900
H1722       H  0.43901469  0.38732493  0.05501305     0.34600
C1723       C  0.39497763  0.10852230  0.06995219     0.20200
C1724       C  0.39015660  0.13536004  0.07057407    -0.39600
C1725       C  0.36366096  0.14276361  0.06999789     0.19200
C1726       C  0.34357903  0.12476056  0.06964882     0.21900
C1727       C  0.34839066  0.09798207  0.06887132    -0.40100
C1728       C  0.37482411  0.09061241  0.06867885     0.20700
N1729       N  0.41833044  0.09658599  0.06753239    -0.33400
C1730       C  0.41296261  0.07097426  0.06383401    -0.11000
C1731       C  0.38603304  0.06649798  0.06473372    -0.29800
N1732       N  0.32015675  0.13661831  0.07046312    -0.46400
C1733       C  0.32521005  0.16242383  0.07099957    -0.05700
C1734       C  0.35218200  0.16703347  0.07046206    -0.23000
H1735       H  0.40587151  0.14943314  0.07082419     0.18800
H1736       H  0.33268658  0.08392002  0.06778657     0.17600
H1737       H  0.37597948  0.04825121  0.06093576     0.13900
H1738       H  0.36203963  0.18555879  0.07214768     0.13700
H1739       H  0.43667484  0.10547914  0.06601176     0.31900
H1740       H  0.30182594  0.12766973  0.07158669     0.34600
C1741       C  0.89625210  0.11197435  0.69208235     0.20200
C1742       C  0.89147296  0.13865463  0.68810952    -0.39600
C1743       C  0.86502081  0.14592621  0.68540154     0.19200
C1744       C  0.84494264  0.12791388  0.68614612     0.21900
C1745       C  0.84968449  0.10130474  0.69052449    -0.40100
C1746       C  0.87607990  0.09409399  0.69363051     0.20700
N1747       N  0.91961109  0.10013493  0.69548915    -0.33400
C1748       C  0.91425605  0.07457332  0.69963940    -0.11000
C1749       C  0.88728628  0.07008235  0.69872891    -0.29800
N1750       N  0.82163924  0.13955194  0.68168441    -0.46400
C1751       C  0.82677747  0.16522674  0.67845881    -0.05700
C1752       C  0.85364874  0.17000515  0.68080843    -0.23000
H1753       H  0.90719162  0.15270271  0.68713614     0.18800
H1754       H  0.83396819  0.08724340  0.69138595     0.17600
H1755       H  0.87723925  0.05174475  0.70178583     0.13900
H1756       H  0.86355989  0.18844408  0.67815990     0.13700
H1757       H  0.93801229  0.10896842  0.69594580     0.31900
H1758       H  0.80334522  0.13053521  0.68044680     0.34600
C1759       C  0.84626588  0.87109375  0.82136036     0.20200
C1760       C  0.85261819  0.89752913  0.82296730    -0.39600
C1761       C  0.87876840  0.90372066  0.81547448     0.19200
C1762       C  0.89721967  0.88501012  0.80735249     0.21900
C1763       C  0.89074207  0.85862941  0.80527808    -0.40100
C1764       C  0.86456980  0.85243583  0.81253482     0.20700
N1765       N  0.82307598  0.86007955  0.82860836    -0.33400
C1766       C  0.82662535  0.83422183  0.82431221    -0.11000
C1767       C  0.85220201  0.82872138  0.81398314    -0.29800
N1768       N  0.92063000  0.89591995  0.80086235    -0.46400
C1769       C  0.91691930  0.92179219  0.80422398    -0.05700
C1770       C  0.89108559  0.92740625  0.81338367    -0.23000
H1771       H  0.83828122  0.91217426  0.82958068     0.18800
H1772       H  0.90505462  0.84398536  0.79861708     0.17600
H1773       H  0.86085293  0.80985729  0.80957567     0.13900
H1774       H  0.88234902  0.94633496  0.81696845     0.13700
H1775       H  0.80606054  0.86952041  0.83679153     0.31900
H1776       H  0.93771081  0.88648364  0.79293749     0.34600
C1777       C  0.15754481  0.87353620  0.81239375     0.20200
C1778       C  0.15226854  0.90017706  0.81320229    -0.39600
C1779       C  0.12579272  0.90703229  0.81106750     0.19200
C1780       C  0.10602777  0.88876266  0.80857914     0.21900
C1781       C  0.11131563  0.86209413  0.80728523    -0.40100
C1782       C  0.13786145  0.85523216  0.80920047     0.20700
N1783       N  0.18094588  0.86204220  0.81626522    -0.33400
C1784       C  0.17617844  0.83621690  0.81546930    -0.11000
C1785       C  0.14955835  0.83119931  0.81069202    -0.29800
N1786       N  0.08253931  0.90035756  0.80641031    -0.46400
C1787       C  0.08750625  0.92616423  0.80695329    -0.05700
C1788       C  0.11423445  0.93108181  0.80991371    -0.23000
H1789       H  0.16763845  0.91450974  0.81557311     0.18800
H1790       H  0.09591362  0.84776230  0.80524797     0.17600
H1791       H  0.13988763  0.81253038  0.81078992     0.13900
H1792       H  0.12394389  0.94972855  0.80978527     0.13700
H1793       H  0.19887678  0.87119793  0.82076205     0.31900
H1794       H  0.06442217  0.89132998  0.80283464     0.34600
C1795       C  0.13917915  0.14490530  0.69060720     0.20200
C1796       C  0.11220217  0.13965746  0.69136854    -0.39600
C1797       C  0.10531973  0.11337484  0.69330798     0.19200
C1798       C  0.12391582  0.09388993  0.69506600     0.21900
C1799       C  0.15086440  0.09911134  0.69433281    -0.40100
C1800       C  0.15773172  0.12534053  0.69167863     0.20700
N1801       N  0.15071674  0.16809648  0.68633553    -0.33400
C1802       C  0.17674962  0.16321879  0.68405326    -0.11000
C1803       C  0.18189146  0.13676744  0.68739487    -0.29800
N1804       N  0.11239375  0.07057468  0.69722008    -0.46400
C1805       C  0.08625209  0.07516593  0.69647162    -0.05700
C1806       C  0.08104860  0.10165629  0.69401055    -0.23000
H1807       H  0.09765382  0.15487694  0.68980713     0.18800
H1808       H  0.16539492  0.08383611  0.69496940     0.17600
H1809       H  0.20064417  0.12710795  0.68528283     0.13900
H1810       H  0.06211335  0.11109360  0.69420640     0.13700
H1811       H  0.14135952  0.18594249  0.68302295     0.31900
H1812       H  0.12174851  0.05265763  0.69977314     0.34600
C1813       C  0.00215095  0.98758284  0.46865828     0.20200
C1814       C  0.00261189  0.97290574  0.49938172    -0.39600
C1815       C  0.00305472  0.98719119  0.53042239     0.19200
C1816       C  0.00295983  0.01403060  0.53103302     0.21900
C1817       C  0.00249850  0.02870913  0.50031421    -0.40100
C1818       C  0.00212790  0.01442184  0.46926183     0.20700
N1819       N  0.00186630  0.97870827  0.43570676    -0.33400
C1820       C  0.00173667  0.00013679  0.41525760    -0.11000
C1821       C  0.00183817  0.02270042  0.43530751    -0.29800
N1822       N  0.00314233  0.02290010  0.56397964    -0.46400
C1823       C  0.00332549  0.00145741  0.58438259    -0.05700
C1824       C  0.00336670  0.97889842  0.56435034    -0.23000
H1825       H  0.00263099  0.95192711  0.49916828     0.18800
H1826       H  0.00243842  0.04968761  0.50054043     0.17600
H1827       H  0.00182354  0.04256826  0.42619723     0.13900
H1828       H  0.00334218  0.95902808  0.57345681     0.13700
H1829       H  0.00186895  0.95937443  0.42767784     0.31900
H1830       H  0.00293375  0.04222735  0.57203549     0.34600
C1831       C  0.99693337  0.01285098  0.96735996     0.20200
C1832       C  0.99578104  0.02898106  0.99673825    -0.39600
C1833       C  0.99534579  0.01617649  0.02894183     0.19200
C1834       C  0.99595713  0.98941000  0.03136954     0.21900
C1835       C  0.99694558  0.97333442  0.00202059    -0.40100
C1836       C  0.99742994  0.98609506  0.96989994     0.20700
N1837       N  0.99792967  0.02021809  0.93395988    -0.33400
C1838       C  0.99900502  0.99803719  0.91507662    -0.11000
C1839       C  0.99871159  0.97627341  0.93656931    -0.29800
N1840       N  0.99619382  0.98188355  0.06470702    -0.46400
C1841       C  0.99584143  0.00390914  0.08387298    -0.05700
C1842       C  0.99513039  0.02581744  0.06249675    -0.23000
H1843       H  0.99555082  0.04990683  0.99465259     0.18800
H1844       H  0.99758763  0.95242144  0.00410116     0.17600
H1845       H  0.99932482  0.95610605  0.92889378     0.13900
H1846       H  0.99500284  0.04594856  0.07038764     0.13700
H1847       H  0.99782830  0.03924342  0.92459455     0.31900
H1848       H  0.99700417  0.96281618  0.07384673     0.34600
C1849       C  0.84511931  0.12972603  0.18546029     0.20200
C1850       C  0.85033870  0.10312216  0.18724808    -0.39600
C1851       C  0.87675530  0.09640311  0.19055895     0.19200
C1852       C  0.89655964  0.11472298  0.19143994     0.21900
C1853       C  0.89128735  0.14141275  0.19016985    -0.40100
C1854       C  0.86474658  0.14818619  0.18740280     0.20700
N1855       N  0.82171552  0.14097245  0.18084931    -0.33400
C1856       C  0.82634426  0.16681619  0.18012221    -0.11000
C1857       C  0.85293615  0.17214574  0.18452428    -0.29800
N1858       N  0.92001042  0.10323050  0.19517963    -0.46400
C1859       C  0.91489644  0.07751188  0.19746417    -0.05700
C1860       C  0.88818259  0.07250212  0.19454373    -0.23000
H1861       H  0.83495092  0.08871579  0.18618817     0.18800
H1862       H  0.90667922  0.15580717  0.19126935     0.17600
H1863       H  0.86245046  0.19088286  0.18383585     0.13900
H1864       H  0.87839681  0.05393041  0.19624647     0.13700
H1865       H  0.80376164  0.13159490  0.17745718     0.31900
H1866       H  0.93817637  0.11235253  0.19768456     0.34600
C1867       C  0.86519012  0.85387978  0.31617216     0.20200
C1868       C  0.89205051  0.85985859  0.31726096    -0.39600
C1869       C  0.89843662  0.88610593  0.31232005     0.19200
C1870       C  0.87946634  0.90484335  0.30675801     0.21900
C1871       C  0.85269047  0.89894532  0.30614699    -0.40100
C1872       C  0.84633909  0.87279816  0.31107857     0.20700
N1873       N  0.85391692  0.83052389  0.32060572    -0.33400
C1874       C  0.82772143  0.83474405  0.31877875    -0.11000
C1875       C  0.82229001  0.86087613  0.31279021    -0.29800
N1876       N  0.89046170  0.92806737  0.30109582    -0.46400
C1877       C  0.91667122  0.92424772  0.30305677    -0.05700
C1878       C  0.92246357  0.89832286  0.31030549    -0.23000
H1879       H  0.90686479  0.84515654  0.32136072     0.18800
H1880       H  0.83788340  0.91363745  0.30190801     0.17600
H1881       H  0.80325566  0.87004217  0.31109181     0.13900
H1882       H  0.94161942  0.88944198  0.31225514     0.13700
H1883       H  0.86337367  0.81304117  0.32615727     0.31900
H1884       H  0.88071299  0.94535331  0.29529570     0.34600
C1885       C  0.10582545  0.89101288  0.31002820     0.20200
C1886       C  0.11095060  0.86429044  0.31006321    -0.39600
C1887       C  0.13748890  0.85725838  0.30977768     0.19200
C1888       C  0.15741232  0.87544518  0.31004939     0.21900
C1889       C  0.15229867  0.90217332  0.30947331    -0.40100
C1890       C  0.12575148  0.90919213  0.30922188     0.20700
N1891       N  0.08228426  0.90264341  0.30872335    -0.33400
C1892       C  0.08726509  0.92838962  0.30625972    -0.11000
C1893       C  0.11415935  0.93321958  0.30667982    -0.29800
N1894       N  0.18088921  0.86378669  0.31245428    -0.46400
C1895       C  0.17587517  0.83797496  0.31344764    -0.05700
C1896       C  0.14903979  0.83316015  0.31137814    -0.23000
H1897       H  0.09541985  0.85001940  0.31032791     0.18800
H1898       H  0.16783049  0.91644616  0.30923642     0.17600
H1899       H  0.12390907  0.95171825  0.30371672     0.13900
H1900       H  0.13923212  0.81462675  0.31346025     0.13700
H1901       H  0.06403800  0.89354530  0.30730932     0.31900
H1902       H  0.19909019  0.87285566  0.31487390     0.34600
C1903       C  0.12285632  0.09436563  0.18887966     0.20200
C1904       C  0.14961291  0.10004837  0.19201842    -0.39600
C1905       C  0.15619762  0.12638628  0.19040370     0.19200
C1906       C  0.13750845  0.14563378  0.18660646     0.21900
C1907       C  0.11074081  0.13992170  0.18327138    -0.40100
C1908       C  0.10418532  0.11352547  0.18432219     0.20700
N1909       N  0.11150837  0.07097758  0.19129524    -0.33400
C1910       C  0.08538263  0.07519569  0.18839883    -0.11000
C1911       C  0.08007254  0.10149765  0.18344201    -0.29800
N1912       N  0.14893351  0.16897881  0.18363946    -0.46400
C1913       C  0.17507891  0.16446780  0.18454418    -0.05700
C1914       C  0.18036976  0.13816471  0.18919106    -0.23000
H1915       H  0.16425412  0.08503707  0.19507397     0.18800
H1916       H  0.09613030  0.15491094  0.17980218     0.17600
H1917       H  0.06107178  0.11076763  0.18221741     0.13900
H1918       H  0.19932164  0.12875506  0.18915364     0.13700
H1919       H  0.12087801  0.05340010  0.19658352     0.31900
H1920       H  0.13960127  0.18658240  0.17838805     0.34600
loop_ 
_geom_bond_atom_site_label_1 
_geom_bond_atom_site_label_2 
_geom_bond_distance 
_geom_bond_site_symmetry_2 
_ccdc_geom_bond_type 
Zr1           O2   2.442       .  S
Zr1           O3   2.449       .  S
Zr1           O4   2.450   1_655  S
Zr1           O7   2.438       .  S
Zr1           O9   2.386   1_655  S
Zr1          O10   2.385       .  S
Zr1          O11   2.412   1_655  S
Zr1          O12   2.404       .  S
O2           H58   0.990   1_655  S
O2           H66   0.991   1_655  S
O3           C23   1.285       .  A
O4           C25   1.286       .  A
O5          Zr15   2.411       .  S
O5           C24   1.280       .  A
O6          Zr14   2.424       .  S
O6           C25   1.282       .  A
O7           C24   1.284       .  A
O8          Zr16   2.401       .  S
O8           C23   1.278   1_565  A
O9          Zr14   2.395       .  S
O9          Zr16   2.384   1_445  S
O10         Zr15   2.389       .  S
O10         Zr16   2.375   1_545  S
O10          H45   0.966       .  S
O11         Zr14   2.399       .  S
O11         Zr31   2.385       .  S
O11          H48   0.965       .  S
O12         Zr15   2.389       .  S
O12         Zr31   2.390   1_655  S
Zr13         O38   2.440   1_455  S
Zr13         O32   2.459       .  S
Zr13         O40   2.445   1_455  S
Zr13         O28   2.451       .  S
Zr13         O19   2.400   1_455  S
Zr13         O20   2.416       .  S
Zr13         O21   2.384   1_565  S
Zr13         O22   2.388   1_465  S
Zr14         O33   2.437       .  S
Zr14         O26   2.435   1_545  S
Zr14         O27   2.422   1_545  S
Zr14         O20   2.397   1_545  S
Zr14         O21   2.398       .  S
Zr15         O17   2.435       .  S
Zr15         O39   2.440   1_545  S
Zr15         O41   2.418   1_545  S
Zr15         O19   2.380   1_545  S
Zr15         O22   2.391       .  S
Zr16         O42   2.435       .  S
Zr16         O43   2.436       .  S
Zr16         O18   2.437   1_655  S
Zr16         O19   2.382       .  S
Zr16         O20   2.388   1_655  S
O17          H54   0.990       .  S
O18          H49   0.990       .  S
O18          H63   0.990       .  S
O20          H46   0.965       .  S
O21         Zr31   2.381       .  S
O22         Zr31   2.384   1_655  S
O22          H47   0.966       .  S
C23        C1841   1.470       .  S
C24        C1859   1.464       .  S
C25        C1910   1.472       .  S
O26          H62   0.990       .  S
O27          C29   1.282       .  A
O28          C29   1.286       .  A
C29        C1892   1.471       .  S
O30         Zr31   2.440       .  S
O30          H59   0.990       .  S
Zr31         O34   2.437       .  S
Zr31         O35   2.440   1_455  S
Zr31         O36   2.397       .  S
O32          C37   1.287   1_565  A
O33          H50   0.990       .  S
O33          H65   0.990       .  S
O34          H51   0.990       .  S
O35          H55   0.990       .  S
O35          H64   0.990       .  S
O36          C37   1.277       .  A
C37        C1820   1.473       .  S
O38          H57   0.991   1_655  S
O38          H61   0.990   1_655  S
O39          H53   0.990       .  S
O39          H60   0.990       .  S
O40          C44   1.286       .  A
O41          C44   1.282       .  A
O42          H52   0.990       .  S
O43          H56   0.990       .  S
C44        C1877   1.471       .  S
Zr67         O68   2.441   1_455  S
Zr67         O69   2.454       .  S
Zr67         O70   2.460       .  S
Zr67         O73   2.463   1_455  S
Zr67         O75   2.385       .  S
Zr67         O76   2.392   1_445  S
Zr67         O77   2.415       .  S
Zr67         O78   2.397   1_455  S
O68         H124   0.990   1_655  S
O68         H132   0.991   1_655  S
O69          C89   1.286       .  A
O70          C91   1.288       .  A
O71         Zr81   2.413   1_545  S
O71          C90   1.281       .  A
O72         Zr80   2.415       .  S
O72          C91   1.280       .  A
O73          C90   1.290       .  A
O74         Zr82   2.394       .  S
O74          C89   1.276   1_565  A
O75         Zr80   2.396       .  S
O75         Zr82   2.379   1_545  S
O76         Zr81   2.394       .  S
O76         Zr82   2.379   1_655  S
O76         H111   0.973       .  S
O77         Zr80   2.400       .  S
O77         Zr97   2.376   1_455  S
O77         H114   0.965       .  S
O78         Zr81   2.389   1_545  S
O78         Zr97   2.380       .  S
Zr79        O104   2.444   1_455  S
Zr79         O98   2.453       .  S
Zr79        O106   2.454   1_455  S
Zr79         O94   2.443       .  S
Zr79         O85   2.403   1_455  S
Zr79         O86   2.419       .  S
Zr79         O87   2.387   1_565  S
Zr79         O88   2.383   1_455  S
Zr80         O99   2.436       .  S
Zr80         O92   2.435   1_545  S
Zr80         O93   2.422   1_545  S
Zr80         O86   2.398   1_545  S
Zr80         O87   2.393       .  S
Zr81         O83   2.434   1_565  S
Zr81        O105   2.434       .  S
Zr81        O107   2.414       .  S
Zr81         O85   2.388       .  S
Zr81         O88   2.388       .  S
Zr82        O108   2.437   1_455  S
Zr82        O109   2.437       .  S
Zr82         O84   2.440       .  S
Zr82         O85   2.393   1_455  S
Zr82         O86   2.379       .  S
O83         H120   0.990       .  S
O84         H115   0.990       .  S
O84         H129   0.990       .  S
O86         H112   0.964       .  S
O87         Zr97   2.384   1_455  S
O88         Zr97   2.379   1_565  S
O88         H113   0.965       .  S
C89        C1823   1.471       .  S
C90        C1748   1.475       .  S
C91        C1805   1.469       .  S
O92         H128   0.990       .  S
O93          C95   1.282       .  A
O94          C95   1.284       .  A
C95        C1787   1.464       .  S
O96         Zr97   2.435       .  S
O96         H125   0.990       .  S
Zr97        O100   2.437   1_655  S
Zr97        O101   2.437       .  S
Zr97        O102   2.386       .  S
O98         C103   1.286   1_455  A
O99         H116   0.990       .  S
O99         H131   0.990       .  S
O100        H117   0.990       .  S
O101        H121   0.990       .  S
O101        H130   0.990       .  S
O102        C103   1.275   1_545  A
C103       C1838   1.467       .  S
O104        H123   0.991   1_655  S
O104        H127   0.991   1_655  S
O105        H119   0.990       .  S
O105        H126   0.990       .  S
O106        C110   1.287       .  A
O107        C110   1.280       .  A
O108        H118   0.990       .  S
O109        H122   0.990       .  S
C110       C1769   1.470       .  S
Zr133       O134   2.442       .  S
Zr133       O135   2.451       .  S
Zr133       O136   2.466       .  S
Zr133       O139   2.456       .  S
Zr133       O141   2.384       .  S
Zr133       O142   2.393       .  S
Zr133       O143   2.411       .  S
Zr133       O144   2.399       .  S
O134        H190   0.990       .  S
O134        H198   0.990       .  S
O135        C155   1.285   1_554  A
O136        C157   1.289       .  A
O137       Zr147   2.417       .  S
O137        C156   1.282       .  A
O138       Zr146   2.431       .  S
O138        C157   1.283       .  A
O139        C156   1.288       .  A
O140       Zr148   2.401       .  S
O140        C155   1.277   1_554  A
O141       Zr146   2.394       .  S
O141       Zr148   2.383       .  S
O142       Zr147   2.393       .  S
O142       Zr148   2.378       .  S
O142        H177   0.966       .  S
O143       Zr146   2.401       .  S
O143       Zr163   2.381       .  S
O143        H180   0.964       .  S
O144       Zr147   2.394       .  S
O144       Zr163   2.380       .  S
Zr145       O170   2.443       .  S
Zr145       O164   2.461       .  S
Zr145       O172   2.451       .  S
Zr145       O160   2.447       .  S
Zr145       O151   2.406       .  S
Zr145       O152   2.419       .  S
Zr145       O153   2.380       .  S
Zr145       O154   2.382       .  S
Zr146       O165   2.436       .  S
Zr146       O158   2.437       .  S
Zr146       O159   2.422       .  S
Zr146       O152   2.402       .  S
Zr146       O153   2.397       .  S
Zr147       O149   2.436       .  S
Zr147       O171   2.437       .  S
Zr147       O173   2.430       .  S
Zr147       O151   2.385       .  S
Zr147       O154   2.394       .  S
Zr148       O174   2.437       .  S
Zr148       O175   2.436       .  S
Zr148       O150   2.437       .  S
Zr148       O151   2.393       .  S
Zr148       O152   2.388       .  S
O149        H186   0.990       .  S
O150        H181   0.990       .  S
O150        H195   0.990       .  S
O152        H178   0.965       .  S
O153       Zr163   2.378       .  S
O154       Zr163   2.381       .  S
O154        H179   0.966       .  S
C155       C1658   1.471       .  S
C156       C1712   1.471       .  S
C157       C1733   1.477       .  S
O158        H194   0.990       .  S
O159        C161   1.283       .  A
O160        C161   1.285       .  A
C161       C1913   1.468       .  S
O162       Zr163   2.438       .  S
O162        H191   0.991       .  S
Zr163       O166   2.437       .  S
Zr163       O167   2.439       .  S
Zr163       O168   2.386       .  S
O164        C169   1.286       .  A
O165        H182   0.990       .  S
O165        H197   0.990       .  S
O166        H183   0.990       .  S
O167        H187   0.990       .  S
O167        H196   0.990       .  S
O168        C169   1.275       .  A
C169       C1676   1.472       .  S
O170        H189   0.990       .  S
O170        H193   0.990       .  S
O171        H185   0.990       .  S
O171        H192   0.990       .  S
O172        C176   1.287       .  A
O173        C176   1.283       .  A
O174        H184   0.990       .  S
O175        H188   0.990       .  S
C176       C1697   1.477       .  S
Zr199       O200   2.441       .  S
Zr199       O201   2.455       .  S
Zr199       O202   2.462       .  S
Zr199       O205   2.452       .  S
Zr199       O207   2.387       .  S
Zr199       O208   2.393       .  S
Zr199       O209   2.417       .  S
Zr199       O210   2.406       .  S
O200        H256   0.990       .  S
O200        H264   0.990       .  S
O201        C221   1.286       .  A
O202        C223   1.288       .  A
O203       Zr213   2.422       .  S
O203        C222   1.283       .  A
O204       Zr212   2.421       .  S
O204        C223   1.282       .  A
O205        C222   1.287       .  A
O206       Zr214   2.391       .  S
O206        C221   1.276       .  A
O207       Zr212   2.395       .  S
O207       Zr214   2.384       .  S
O208       Zr213   2.390       .  S
O208       Zr214   2.378       .  S
O208        H243   0.966       .  S
O209       Zr212   2.401       .  S
O209       Zr229   2.387       .  S
O209        H246   0.965       .  S
O210       Zr213   2.390       .  S
O210       Zr229   2.382       .  S
Zr211       O236   2.442       .  S
Zr211       O230   2.450       .  S
Zr211       O238   2.443       .  S
Zr211       O226   2.455       .  S
Zr211       O217   2.404       .  S
Zr211       O218   2.409       .  S
Zr211       O219   2.380       .  S
Zr211       O220   2.388       .  S
Zr212       O231   2.436       .  S
Zr212       O224   2.434       .  S
Zr212       O225   2.420       .  S
Zr212       O218   2.396       .  S
Zr212       O219   2.393       .  S
Zr213       O215   2.436       .  S
Zr213       O237   2.439       .  S
Zr213       O239   2.424       .  S
Zr213       O217   2.388       .  S
Zr213       O220   2.395       .  S
Zr214       O240   2.436       .  S
Zr214       O241   2.438       .  S
Zr214       O216   2.437       .  S
Zr214       O217   2.388       .  S
Zr214       O218   2.383       .  S
O215        H252   0.990       .  S
O216        H247   0.990       .  S
O216        H261   0.990       .  S
O218        H244   0.964       .  S
O219       Zr229   2.384       .  S
O220       Zr229   2.381       .  S
O220        H245   0.966       .  S
C221       C1679   1.470       .  S
C222       C1625   1.473       .  S
C223       C1640   1.475       .  S
O224        H260   0.990       .  S
O225        C227   1.282       .  A
O226        C227   1.286       .  A
C227       C1802   1.470       .  S
O228       Zr229   2.439       .  S
O228        H257   0.990       .  S
Zr229       O232   2.438       .  S
Zr229       O233   2.440       .  S
Zr229       O234   2.397       .  S
O230        C235   1.286       .  A
O231        H248   0.990       .  S
O231        H263   0.990       .  S
O232        H249   0.990       .  S
O233        H253   0.990       .  S
O233        H262   0.990       .  S
O234        C235   1.277       .  A
C235       C1661   1.469       .  S
O236        H255   0.990       .  S
O236        H259   0.990       .  S
O237        H251   0.990       .  S
O237        H258   0.990       .  S
O238        C242   1.285       .  A
O239        C242   1.283       .  A
O240        H250   0.990       .  S
O241        H254   0.990       .  S
C242       C1607   1.471       .  S
Zr265       O266   2.442       .  S
Zr265       O267   2.446       .  S
Zr265       O268   2.454       .  S
Zr265       O271   2.467       .  S
Zr265       O273   2.387       .  S
Zr265       O274   2.389       .  S
Zr265       O275   2.418       .  S
Zr265       O276   2.401       .  S
O266        H322   0.990       .  S
O266        H330   0.990       .  S
O267        C287   1.284       .  A
O268        C289   1.287       .  A
O269       Zr279   2.424       .  S
O269        C288   1.284       .  A
O270       Zr278   2.424       .  S
O270        C289   1.282       .  A
O271        C288   1.290       .  A
O272       Zr280   2.401       .  S
O272        C287   1.276       .  A
O273       Zr278   2.399       .  S
O273       Zr280   2.382       .  S
O274       Zr279   2.396       .  S
O274       Zr280   2.382       .  S
O274        H309   0.966       .  S
O275       Zr278   2.401       .  S
O275       Zr295   2.386       .  S
O275        H312   0.965       .  S
O276       Zr279   2.387       .  S
O276       Zr295   2.389       .  S
Zr277       O302   2.442       .  S
Zr277       O296   2.462       .  S
Zr277       O304   2.450       .  S
Zr277       O292   2.448       .  S
Zr277       O283   2.403       .  S
Zr277       O284   2.417       .  S
Zr277       O285   2.382       .  S
Zr277       O286   2.383       .  S
Zr278       O297   2.439       .  S
Zr278       O290   2.435       .  S
Zr278       O291   2.430       .  S
Zr278       O284   2.399       .  S
Zr278       O285   2.392       .  S
Zr279       O281   2.435       .  S
Zr279       O303   2.436       .  S
Zr279       O305   2.428       .  S
Zr279       O283   2.388       .  S
Zr279       O286   2.391       .  S
Zr280       O306   2.434       .  S
Zr280       O307   2.436       .  S
Zr280       O282   2.439       .  S
Zr280       O283   2.388       .  S
Zr280       O284   2.383       .  S
O281        H318   0.990       .  S
O282        H313   0.990       .  S
O282        H327   0.990       .  S
O284        H310   0.964       .  S
O285       Zr295   2.380       .  S
O286       Zr295   2.381       .  S
O286        H311   0.966       .  S
C287       C1532   1.469       .  S
C288       C1553   1.483       .  S
C289       C1895   1.471       .  S
O290        H326   0.990       .  S
O291        C293   1.283       .  A
O292        C293   1.285       .  A
C293       C1589   1.468       .  S
O294       Zr295   2.437       .  S
O294        H323   0.990       .  S
Zr295       O298   2.437       .  S
Zr295       O299   2.439       .  S
Zr295       O300   2.398       .  S
O296        C301   1.288       .  A
O297        H314   0.990       .  S
O297        H329   0.990       .  S
O298        H315   0.990       .  S
O299        H319   0.990       .  S
O299        H328   0.990       .  S
O300        C301   1.277       .  A
C301       C1514   1.474       .  S
O302        H321   0.991       .  S
O302        H325   0.990       .  S
O303        H317   0.990       .  S
O303        H324   0.990       .  S
O304        C308   1.286       .  A
O305        C308   1.283       .  A
O306        H316   0.990       .  S
O307        H320   0.990       .  S
C308       C1568   1.475       .  S
Zr331       O332   2.442       .  S
Zr331       O333   2.452       .  S
Zr331       O334   2.446       .  S
Zr331       O337   2.451       .  S
Zr331       O339   2.386       .  S
Zr331       O340   2.385       .  S
Zr331       O341   2.414       .  S
Zr331       O342   2.399       .  S
O332        H388   0.990       .  S
O332        H396   0.991       .  S
O333        C353   1.286       .  A
O334        C355   1.285       .  A
O335       Zr345   2.414       .  S
O335        C354   1.281       .  A
O336       Zr344   2.425       .  S
O336        C355   1.282       .  A
O337        C354   1.286       .  A
O338       Zr346   2.393       .  S
O338        C353   1.277       .  A
O339       Zr344   2.397       .  S
O339       Zr346   2.383       .  S
O340       Zr345   2.389       .  S
O340       Zr346   2.376       .  S
O340        H375   0.966       .  S
O341       Zr344   2.401       .  S
O341       Zr361   2.383       .  S
O341        H378   0.965       .  S
O342       Zr345   2.386       .  S
O342       Zr361   2.387       .  S
Zr343       O368   2.442       .  S
Zr343       O362   2.445       .  S
Zr343       O370   2.459       .  S
Zr343       O358   2.456       .  S
Zr343       O349   2.402       .  S
Zr343       O350   2.413       .  S
Zr343       O351   2.386       .  S
Zr343       O352   2.392       .  S
Zr344       O363   2.439       .  S
Zr344       O356   2.434       .  S
Zr344       O357   2.426       .  S
Zr344       O350   2.397       .  S
Zr344       O351   2.393       .  S
Zr345       O347   2.437       .  S
Zr345       O369   2.438       .  S
Zr345       O371   2.411       .  S
Zr345       O349   2.392       .  S
Zr345       O352   2.390       .  S
Zr346       O372   2.435       .  S
Zr346       O373   2.437       .  S
Zr346       O348   2.437       .  S
Zr346       O349   2.384       .  S
Zr346       O350   2.385       .  S
O347        H384   0.990       .  S
O348        H379   0.990       .  S
O348        H393   0.990       .  S
O350        H376   0.965       .  S
O351       Zr361   2.381       .  S
O352       Zr361   2.384       .  S
O352        H377   0.966       .  S
C353       C1517   1.471       .  S
C354       C1460   1.473       .  S
C355       C1784   1.469       .  S
O356        H392   0.990       .  S
O357        C359   1.283       .  A
O358        C359   1.288       .  A
C359       C1496   1.475       .  S
O360       Zr361   2.441       .  S
O360        H389   0.990       .  S
Zr361       O364   2.438       .  S
Zr361       O365   2.439       .  S
Zr361       O366   2.396       .  S
O362        C367   1.285   1_556  A
O363        H380   0.990       .  S
O363        H395   0.990       .  S
O364        H381   0.990       .  S
O365        H385   0.990       .  S
O365        H394   0.990       .  S
O366        C367   1.277   1_556  A
C367       C1535   1.466       .  S
O368        H387   0.990       .  S
O368        H391   0.990       .  S
O369        H383   0.990       .  S
O369        H390   0.990       .  S
O370        C374   1.287       .  A
O371        C374   1.280       .  A
O372        H382   0.990       .  S
O373        H386   0.990       .  S
C374       C1478   1.473       .  S
Zr397       O398   2.442       .  S
Zr397       O399   2.448       .  S
Zr397       O400   2.450       .  S
Zr397       O403   2.446       .  S
Zr397       O405   2.387       .  S
Zr397       O406   2.387       .  S
Zr397       O407   2.412   1_556  S
Zr397       O408   2.399   1_556  S
O398        H454   0.990       .  S
O398        H462   0.991       .  S
O399        C419   1.285       .  A
O400        C421   1.285       .  A
O401       Zr411   2.414   1_556  S
O401        C420   1.282       .  A
O402       Zr410   2.431   1_556  S
O402        C421   1.283       .  A
O403        C420   1.286       .  A
O404       Zr412   2.402       .  S
O404        C419   1.278   1_545  A
O405       Zr410   2.400   1_556  S
O405       Zr412   2.385   1_565  S
O406       Zr411   2.391   1_556  S
O406       Zr412   2.376   1_565  S
O406        H441   0.966       .  S
O407       Zr410   2.403       .  S
O407       Zr427   2.387       .  S
O407        H444   0.965       .  S
O408       Zr411   2.394       .  S
O408       Zr427   2.383       .  S
Zr409       O434   2.443       .  S
Zr409       O428   2.447       .  S
Zr409       O436   2.450       .  S
Zr409       O424   2.448       .  S
Zr409       O415   2.399       .  S
Zr409       O416   2.415       .  S
Zr409       O417   2.387   1_545  S
Zr409       O418   2.389   1_545  S
Zr410       O429   2.436       .  S
Zr410       O422   2.436   1_564  S
Zr410       O423   2.431   1_565  S
Zr410       O416   2.402   1_565  S
Zr410       O417   2.399       .  S
Zr411       O413   2.436       .  S
Zr411       O435   2.436   1_564  S
Zr411       O437   2.423   1_565  S
Zr411       O415   2.385   1_565  S
Zr411       O418   2.397       .  S
Zr412       O438   2.436       .  S
Zr412       O439   2.434       .  S
Zr412       O414   2.436       .  S
Zr412       O415   2.383   1_556  S
Zr412       O416   2.383   1_556  S
O413        H450   0.990       .  S
O414        H445   0.990       .  S
O414        H459   0.990       .  S
O416        H442   0.965   1_554  S
O417       Zr427   2.385       .  S
O418       Zr427   2.381       .  S
O418        H443   0.966       .  S
C419       C1388   1.471       .  S
C420       C1427   1.467       .  S
C421       C1499   1.473       .  S
O422        H458   0.990       .  S
O423        C425   1.284       .  A
O424        C425   1.285       .  A
C425       C1730   1.473       .  S
O426       Zr427   2.439       .  S
O426        H455   0.991       .  S
Zr427       O430   2.438       .  S
Zr427       O431   2.439       .  S
Zr427       O432   2.392       .  S
O428        C433   1.284   1_545  A
O429        H446   0.990       .  S
O429        H461   0.990       .  S
O430        H447   0.990       .  S
O431        H451   0.990       .  S
O431        H460   0.989       .  S
O432        C433   1.276       .  A
C433       C1406   1.467       .  S
O434        H453   0.991       .  S
O434        H457   0.990       .  S
O435        H449   0.990       .  S
O435        H456   0.990       .  S
O436        C440   1.287       .  A
O437        C440   1.282       .  A
O438        H448   0.990       .  S
O439        H452   0.990       .  S
C440       C1442   1.473       .  S
Zr463       O464   2.442       .  S
Zr463       O465   2.453       .  S
Zr463       O466   2.457       .  S
Zr463       O469   2.447       .  S
Zr463       O471   2.384       .  S
Zr463       O472   2.385       .  S
Zr463       O473   2.415       .  S
Zr463       O474   2.403       .  S
O464        H520   0.990       .  S
O464        H528   0.991       .  S
O465        C485   1.285       .  A
O466        C487   1.287       .  A
O467       Zr477   2.414       .  S
O467        C486   1.282       .  A
O468       Zr476   2.426       .  S
O468        C487   1.283       .  A
O469        C486   1.286       .  A
O470       Zr478   2.393       .  S
O470        C485   1.276   1_545  A
O471       Zr476   2.397       .  S
O471       Zr478   2.384   1_565  S
O472       Zr477   2.394       .  S
O472       Zr478   2.372   1_565  S
O472        H507   0.966       .  S
O473       Zr476   2.403       .  S
O473       Zr493   2.382       .  S
O473        H510   0.964       .  S
O474       Zr477   2.393       .  S
O474       Zr493   2.386       .  S
Zr475       O500   2.442       .  S
Zr475       O494   2.454       .  S
Zr475       O502   2.447       .  S
Zr475       O490   2.433       .  S
Zr475       O481   2.401       .  S
Zr475       O482   2.415       .  S
Zr475       O483   2.382   1_545  S
Zr475       O484   2.385   1_545  S
Zr476       O495   2.439       .  S
Zr476       O488   2.435   1_565  S
Zr476       O489   2.437   1_565  S
Zr476       O482   2.393   1_565  S
Zr476       O483   2.392       .  S
Zr477       O479   2.435       .  S
Zr477       O501   2.440   1_565  S
Zr477       O503   2.424   1_565  S
Zr477       O481   2.390   1_565  S
Zr477       O484   2.393       .  S
Zr478       O504   2.437       .  S
Zr478       O505   2.436       .  S
Zr478       O480   2.437       .  S
Zr478       O481   2.388       .  S
Zr478       O482   2.383       .  S
O479        H516   0.990       .  S
O480        H511   0.991       .  S
O480        H525   0.990       .  S
O482        H508   0.965       .  S
O483       Zr493   2.378       .  S
O484       Zr493   2.381       .  S
O484        H509   0.966       .  S
C485       C1409   1.469       .  S
C486       C1352   1.469       .  S
C487       C1586   1.474       .  S
O488        H524   0.990       .  S
O489        C491   1.285       .  A
O490        C491   1.283       .  A
C491       C1643   1.469       .  S
O492       Zr493   2.438       .  S
O492        H521   0.990       .  S
Zr493       O496   2.436       .  S
Zr493       O497   2.438       .  S
Zr493       O498   2.394       .  S
O494        C499   1.285       .  A
O495        H512   0.990       .  S
O495        H527   0.990       .  S
O496        H513   0.989       .  S
O497        H517   0.990       .  S
O497        H526   0.990       .  S
O498        C499   1.277   1_565  A
C499       C1391   1.471       .  S
O500        H519   0.990       .  S
O500        H523   0.991       .  S
O501        H515   0.990       .  S
O501        H522   0.990       .  S
O502        C506   1.284       .  A
O503        C506   1.283       .  A
O504        H514   0.990       .  S
O505        H518   0.990       .  S
C506       C1370   1.471       .  S
Zr529       O530   2.441       .  S
Zr529       O531   2.452       .  S
Zr529       O532   2.469       .  S
Zr529       O535   2.445       .  S
Zr529       O537   2.385       .  S
Zr529       O538   2.391       .  S
Zr529       O539   2.407       .  S
Zr529       O540   2.403       .  S
O530        H586   0.990       .  S
O530        H594   0.991       .  S
O531        C551   1.286       .  A
O532        C553   1.289       .  A
O533       Zr543   2.418       .  S
O533        C552   1.282       .  A
O534       Zr542   2.425       .  S
O534        C553   1.283       .  A
O535        C552   1.286       .  A
O536       Zr544   2.397       .  S
O536        C551   1.277       .  A
O537       Zr542   2.395       .  S
O537       Zr544   2.389       .  S
O538       Zr543   2.393       .  S
O538       Zr544   2.374       .  S
O538        H573   0.966       .  S
O539       Zr542   2.396       .  S
O539       Zr559   2.382       .  S
O539        H576   0.965       .  S
O540       Zr543   2.387       .  S
O540       Zr559   2.382       .  S
Zr541       O566   2.441       .  S
Zr541       O560   2.454       .  S
Zr541       O568   2.455       .  S
Zr541       O556   2.463       .  S
Zr541       O547   2.402       .  S
Zr541       O548   2.412       .  S
Zr541       O549   2.382       .  S
Zr541       O550   2.387       .  S
Zr542       O561   2.437       .  S
Zr542       O554   2.434       .  S
Zr542       O555   2.417       .  S
Zr542       O548   2.398       .  S
Zr542       O549   2.396       .  S
Zr543       O545   2.435       .  S
Zr543       O567   2.441       .  S
Zr543       O569   2.418       .  S
Zr543       O547   2.388       .  S
Zr543       O550   2.392       .  S
Zr544       O570   2.435       .  S
Zr544       O571   2.436       .  S
Zr544       O546   2.438       .  S
Zr544       O547   2.386       .  S
Zr544       O548   2.381       .  S
O545        H582   0.990       .  S
O546        H577   0.990       .  S
O546        H591   0.990       .  S
O548        H574   0.965       .  S
O549       Zr559   2.380       .  S
O550       Zr559   2.379       .  S
O550        H575   0.966       .  S
C551       C1280   1.470       .  S
C552       C1355   1.465       .  S
C553       C1337   1.480       .  S
O554        H590   0.990       .  S
O555        C557   1.281       .  A
O556        C557   1.289       .  A
C557       C1316   1.472       .  S
O558       Zr559   2.438       .  S
O558        H587   0.990       .  S
Zr559       O562   2.437       .  S
Zr559       O563   2.440       .  S
Zr559       O564   2.397       .  S
O560        C565   1.287       .  A
O561        H578   0.990       .  S
O561        H593   0.990       .  S
O562        H579   0.990       .  S
O563        H583   0.990       .  S
O563        H592   0.990       .  S
O564        C565   1.276       .  A
C565       C1298   1.470       .  S
O566        H585   0.991       .  S
O566        H589   0.990       .  S
O567        H581   0.990       .  S
O567        H588   0.990       .  S
O568        C572   1.287       .  A
O569        C572   1.281       .  A
O570        H580   0.990       .  S
O571        H584   0.990       .  S
C572       C1874   1.473       .  S
Zr595       O596   2.441       .  S
Zr595       O597   2.455       .  S
Zr595       O598   2.458       .  S
Zr595       O601   2.447       .  S
Zr595       O603   2.381       .  S
Zr595       O604   2.392       .  S
Zr595       O605   2.411       .  S
Zr595       O606   2.403       .  S
O596        H652   0.990       .  S
O596        H660   0.991       .  S
O597        C617   1.287   1_556  A
O598        C619   1.287       .  A
O599       Zr609   2.418       .  S
O599        C618   1.281       .  A
O600       Zr608   2.425       .  S
O600        C619   1.282       .  A
O601        C618   1.286       .  A
O602       Zr610   2.399       .  S
O602        C617   1.277   1_556  A
O603       Zr608   2.393       .  S
O603       Zr610   2.381       .  S
O604       Zr609   2.393       .  S
O604       Zr610   2.378       .  S
O604        H639   0.966       .  S
O605       Zr608   2.399       .  S
O605       Zr625   2.391       .  S
O605        H642   0.965       .  S
O606       Zr609   2.387       .  S
O606       Zr625   2.381       .  S
Zr607       O632   2.444       .  S
Zr607       O626   2.451       .  S
Zr607       O634   2.443       .  S
Zr607       O622   2.453       .  S
Zr607       O613   2.406       .  S
Zr607       O614   2.410       .  S
Zr607       O615   2.384       .  S
Zr607       O616   2.388       .  S
Zr608       O627   2.435       .  S
Zr608       O620   2.434       .  S
Zr608       O621   2.431       .  S
Zr608       O614   2.395       .  S
Zr608       O615   2.399       .  S
Zr609       O611   2.435       .  S
Zr609       O633   2.443       .  S
Zr609       O635   2.418       .  S
Zr609       O613   2.388       .  S
Zr609       O616   2.392       .  S
Zr610       O636   2.435       .  S
Zr610       O637   2.435       .  S
Zr610       O612   2.437       .  S
Zr610       O613   2.386       .  S
Zr610       O614   2.382       .  S
O611        H648   0.990       .  S
O612        H643   0.990       .  S
O612        H657   0.990       .  S
O614        H640   0.965       .  S
O615       Zr625   2.385       .  S
O616       Zr625   2.378       .  S
O616        H641   0.966       .  S
C617       C1301   1.472       .  S
C618       C1424   1.469       .  S
C619       C1265   1.476       .  S
O620        H656   0.990       .  S
O621        C623   1.284       .  A
O622        C623   1.286       .  A
C623       C1244   1.475       .  S
O624       Zr625   2.438       .  S
O624        H653   0.990       .  S
Zr625       O628   2.436       .  S
Zr625       O629   2.442       .  S
Zr625       O630   2.399       .  S
O626        C631   1.286       .  A
O627        H644   0.990       .  S
O627        H659   0.990       .  S
O628        H645   0.990       .  S
O629        H649   0.990       .  S
O629        H658   0.990       .  S
O630        C631   1.277       .  A
C631       C1283   1.470       .  S
O632        H651   0.991       .  S
O632        H655   0.990       .  S
O633        H647   0.990       .  S
O633        H654   0.990       .  S
O634        C638   1.286       .  A
O635        C638   1.281       .  A
O636        H646   0.990       .  S
O637        H650   0.990       .  S
C638       C1766   1.471       .  S
Zr661       O662   2.442       .  S
Zr661       O663   2.444       .  S
Zr661       O664   2.457       .  S
Zr661       O667   2.451       .  S
Zr661       O669   2.382       .  S
Zr661       O670   2.392       .  S
Zr661       O671   2.412       .  S
Zr661       O672   2.399       .  S
O662        H718   0.990       .  S
O662        H726   0.990       .  S
O663        C683   1.284   1_554  A
O664        C685   1.287       .  A
O665       Zr675   2.414       .  S
O665        C684   1.281       .  A
O666       Zr674   2.420       .  S
O666        C685   1.281       .  A
O667        C684   1.287       .  A
O668       Zr676   2.397       .  S
O668        C683   1.276   1_554  A
O669       Zr674   2.392       .  S
O669       Zr676   2.385       .  S
O670       Zr675   2.389       .  S
O670       Zr676   2.377       .  S
O670        H705   0.966       .  S
O671       Zr674   2.403       .  S
O671       Zr691   2.389       .  S
O671        H708   0.965       .  S
O672       Zr675   2.388       .  S
O672       Zr691   2.380       .  S
Zr673       O698   2.442       .  S
Zr673       O692   2.456       .  S
Zr673       O700   2.450       .  S
Zr673       O688   2.446       .  S
Zr673       O679   2.409       .  S
Zr673       O680   2.412       .  S
Zr673       O681   2.383       .  S
Zr673       O682   2.387       .  S
Zr674       O693   2.436       .  S
Zr674       O686   2.437       .  S
Zr674       O687   2.429       .  S
Zr674       O680   2.390       .  S
Zr674       O681   2.395       .  S
Zr675       O677   2.435       .  S
Zr675       O699   2.439       .  S
Zr675       O701   2.414       .  S
Zr675       O679   2.391       .  S
Zr675       O682   2.396       .  S
Zr676       O702   2.436       .  S
Zr676       O703   2.436       .  S
Zr676       O678   2.437       .  S
Zr676       O679   2.388       .  S
Zr676       O680   2.380       .  S
O677        H714   0.990       .  S
O678        H709   0.991       .  S
O678        H723   0.990       .  S
O680        H706   0.965       .  S
O681       Zr691   2.384       .  S
O682       Zr691   2.380       .  S
O682        H707   0.966       .  S
C683       C1172   1.467       .  S
C684       C1445   1.469       .  S
C685       C1229   1.472       .  S
O686        H722   0.990       .  S
O687        C689   1.284       .  A
O688        C689   1.286       .  A
C689       C1211   1.472       .  S
O690       Zr691   2.439       .  S
O690        H719   0.990       .  S
Zr691       O694   2.438       .  S
Zr691       O695   2.440       .  S
Zr691       O696   2.396       .  S
O692        C697   1.287       .  A
O693        H710   0.990       .  S
O693        H725   0.990       .  S
O694        H711   0.990       .  S
O695        H715   0.990       .  S
O695        H724   0.990       .  S
O696        C697   1.277       .  A
C697       C1190   1.472       .  S
O698        H717   0.990       .  S
O698        H721   0.990       .  S
O699        H713   0.990       .  S
O699        H720   0.990       .  S
O700        C704   1.286       .  A
O701        C704   1.280       .  A
O702        H712   0.990       .  S
O703        H716   0.990       .  S
C704       C1856   1.468       .  S
Zr727       O728   2.443       .  S
Zr727       O729   2.446       .  S
Zr727       O730   2.460       .  S
Zr727       O733   2.453       .  S
Zr727       O735   2.384       .  S
Zr727       O736   2.391       .  S
Zr727       O737   2.412       .  S
Zr727       O738   2.405       .  S
O728        H784   0.991       .  S
O728        H792   0.990       .  S
O729        C749   1.284       .  A
O730        C751   1.287       .  A
O731       Zr741   2.418       .  S
O731        C750   1.282       .  A
O732       Zr740   2.428       .  S
O732        C751   1.283       .  A
O733        C750   1.288       .  A
O734       Zr742   2.400       .  S
O734        C749   1.277       .  A
O735       Zr740   2.394       .  S
O735       Zr742   2.384       .  S
O736       Zr741   2.393       .  S
O736       Zr742   2.378       .  S
O736        H771   0.966       .  S
O737       Zr740   2.399       .  S
O737       Zr757   2.388       .  S
O737        H774   0.965       .  S
O738       Zr741   2.389       .  S
O738       Zr757   2.389       .  S
Zr739       O764   2.442       .  S
Zr739       O758   2.452       .  S
Zr739       O766   2.452       .  S
Zr739       O754   2.455       .  S
Zr739       O745   2.399       .  S
Zr739       O746   2.413       .  S
Zr739       O747   2.382       .  S
Zr739       O748   2.387       .  S
Zr740       O759   2.436       .  S
Zr740       O752   2.435       .  S
Zr740       O753   2.422       .  S
Zr740       O746   2.403       .  S
Zr740       O747   2.397       .  S
Zr741       O743   2.435       .  S
Zr741       O765   2.436       .  S
Zr741       O767   2.424       .  S
Zr741       O745   2.385       .  S
Zr741       O748   2.395       .  S
Zr742       O768   2.437       .  S
Zr742       O769   2.438       .  S
Zr742       O744   2.439       .  S
Zr742       O745   2.384       .  S
Zr742       O746   2.386       .  S
O743        H780   0.990       .  S
O744        H775   0.990       .  S
O744        H789   0.990       .  S
O746        H772   0.965       .  S
O747       Zr757   2.383       .  S
O748       Zr757   2.381       .  S
O748        H773   0.966       .  S
C749       C1193   1.470       .  S
C750       C1373   1.474       .  S
C751       C1154   1.477       .  S
O752        H788   0.990       .  S
O753        C755   1.282       .  A
O754        C755   1.287       .  A
C755       C1136   1.473       .  S
O756       Zr757   2.439       .  S
O756        H785   0.990       .  S
Zr757       O760   2.437       .  S
Zr757       O761   2.443       .  S
Zr757       O762   2.405       .  S
O758        C763   1.286       .  A
O759        H776   0.990       .  S
O759        H791   0.990       .  S
O760        H777   0.990       .  S
O761        H781   0.990       .  S
O761        H790   0.989       .  S
O762        C763   1.278       .  A
C763       C1175   1.473       .  S
O764        H783   0.991       .  S
O764        H787   0.990       .  S
O765        H779   0.990       .  S
O765        H786   0.990       .  S
O766        C770   1.287       .  A
O767        C770   1.283       .  A
O768        H778   0.990       .  S
O769        H782   0.990       .  S
C770       C1751   1.475       .  S
Zr793       O794   2.442       .  S
Zr793       O795   2.454       .  S
Zr793       O796   2.449       .  S
Zr793       O799   2.452       .  S
Zr793       O801   2.383       .  S
Zr793       O802   2.389       .  S
Zr793       O803   2.418   1_554  S
Zr793       O804   2.402   1_554  S
O794        H850   0.990       .  S
O794        H858   0.991       .  S
O795        C815   1.286       .  A
O796        C817   1.285       .  A
O797       Zr807   2.420   1_554  S
O797        C816   1.282       .  A
O798       Zr806   2.429   1_554  S
O798        C817   1.283       .  A
O799        C816   1.287       .  A
O800       Zr808   2.400       .  S
O800        C815   1.277       .  A
O801       Zr806   2.396   1_554  S
O801       Zr808   2.380       .  S
O802       Zr807   2.392   1_554  S
O802       Zr808   2.380       .  S
O802        H837   0.966       .  S
O803       Zr806   2.404       .  S
O803       Zr823   2.386       .  S
O803        H840   0.965       .  S
O804       Zr807   2.388       .  S
O804       Zr823   2.381       .  S
Zr805       O830   2.443       .  S
Zr805       O824   2.457       .  S
Zr805       O832   2.453       .  S
Zr805       O820   2.457       .  S
Zr805       O811   2.403   1_556  S
Zr805       O812   2.414   1_556  S
Zr805       O813   2.386       .  S
Zr805       O814   2.389       .  S
Zr806       O825   2.437       .  S
Zr806       O818   2.436   1_556  S
Zr806       O819   2.433       .  S
Zr806       O812   2.399   1_556  S
Zr806       O813   2.399       .  S
Zr807       O809   2.436       .  S
Zr807       O831   2.436   1_556  S
Zr807       O833   2.423       .  S
Zr807       O811   2.387   1_556  S
Zr807       O814   2.393       .  S
Zr808       O834   2.437       .  S
Zr808       O835   2.435       .  S
Zr808       O810   2.437       .  S
Zr808       O811   2.387       .  S
Zr808       O812   2.388       .  S
O809        H846   0.990       .  S
O810        H841   0.990       .  S
O810        H855   0.990       .  S
O812        H838   0.965       .  S
O813       Zr823   2.387       .  S
O814       Zr823   2.381       .  S
O814        H839   0.966       .  S
C815       C1121   1.472       .  S
C816       C1715   1.472       .  S
C817       C1226   1.469       .  S
O818        H854   0.990       .  S
O819        C821   1.283       .  A
O820        C821   1.287       .  A
C821       C1262   1.478       .  S
O822       Zr823   2.439       .  S
O822        H851   0.990       .  S
Zr823       O826   2.436       .  S
Zr823       O827   2.441       .  S
Zr823       O828   2.397       .  S
O824        C829   1.286       .  A
O825        H842   0.990       .  S
O825        H857   0.990       .  S
O826        H843   0.990       .  S
O827        H847   0.990       .  S
O827        H856   0.990       .  S
O828        C829   1.277       .  A
C829       C1100   1.472       .  S
O830        H849   0.991       .  S
O830        H853   0.991       .  S
O831        H845   0.990       .  S
O831        H852   0.990       .  S
O832        C836   1.287       .  A
O833        C836   1.282       .  A
O834        H844   0.990       .  S
O835        H848   0.990       .  S
C836       C1481   1.471       .  S
Zr859       O860   2.443       .  S
Zr859       O861   2.453       .  S
Zr859       O862   2.457       .  S
Zr859       O865   2.456       .  S
Zr859       O867   2.387       .  S
Zr859       O868   2.391       .  S
Zr859       O869   2.413       .  S
Zr859       O870   2.402       .  S
O860        H916   0.990       .  S
O860        H924   0.991       .  S
O861        C881   1.286       .  A
O862        C883   1.286       .  A
O863       Zr873   2.425       .  S
O863        C882   1.284       .  A
O864       Zr872   2.433       .  S
O864        C883   1.284       .  A
O865        C882   1.288       .  A
O866       Zr874   2.392       .  S
O866        C881   1.276       .  A
O867       Zr872   2.400       .  S
O867       Zr874   2.384       .  S
O868       Zr873   2.396       .  S
O868       Zr874   2.381       .  S
O868        H903   0.966       .  S
O869       Zr872   2.401       .  S
O869       Zr889   2.386       .  S
O869        H906   0.965       .  S
O870       Zr873   2.388       .  S
O870       Zr889   2.384       .  S
Zr871       O896   2.441       .  S
Zr871       O890   2.449       .  S
Zr871       O898   2.455       .  S
Zr871       O886   2.462       .  S
Zr871       O877   2.400       .  S
Zr871       O878   2.415       .  S
Zr871       O879   2.386       .  S
Zr871       O880   2.391       .  S
Zr872       O891   2.435       .  S
Zr872       O884   2.434       .  S
Zr872       O885   2.435       .  S
Zr872       O878   2.403       .  S
Zr872       O879   2.395       .  S
Zr873       O875   2.435       .  S
Zr873       O897   2.437       .  S
Zr873       O899   2.422       .  S
Zr873       O877   2.389       .  S
Zr873       O880   2.394       .  S
Zr874       O900   2.436       .  S
Zr874       O901   2.435       .  S
Zr874       O876   2.437       .  S
Zr874       O877   2.381       .  S
Zr874       O878   2.379       .  S
O875        H912   0.990       .  S
O876        H907   0.990       .  S
O876        H921   0.990       .  S
O878        H904   0.964       .  S
O879       Zr889   2.384       .  S
O880       Zr889   2.379       .  S
O880        H905   0.966       .  S
C881       C1103   1.469       .  S
C882       C1622   1.476       .  S
C883       C1157   1.478       .  S
O884        H920   0.990       .  S
O885        C887   1.284       .  A
O886        C887   1.288       .  A
C887       C1334   1.478       .  S
O888       Zr889   2.439       .  S
O888        H917   0.990       .  S
Zr889       O892   2.436       .  S
Zr889       O893   2.441       .  S
Zr889       O894   2.391       .  S
O890        C895   1.285       .  A
O891        H908   0.990       .  S
O891        H923   0.990       .  S
O892        H909   0.990       .  S
O893        H913   0.990       .  S
O893        H922   0.989       .  S
O894        C895   1.275       .  A
C895       C1118   1.468       .  S
O896        H915   0.990       .  S
O896        H919   0.990       .  S
O897        H911   0.990       .  S
O897        H918   0.990       .  S
O898        C902   1.288       .  A
O899        C902   1.282       .  A
O900        H910   0.990       .  S
O901        H914   0.990       .  S
C902       C1571   1.475       .  S
Zr925       O926   2.442       .  S
Zr925       O927   2.446       .  S
Zr925       O928   2.449       .  S
Zr925       O931   2.453   1_655  S
Zr925       O933   2.384       .  S
Zr925       O934   2.389   1_655  S
Zr925       O935   2.412       .  S
Zr925       O936   2.398   1_655  S
O926        H982   0.990       .  S
O926        H990   0.991       .  S
O927        C947   1.285       .  A
O928        C949   1.285       .  A
O929       Zr939   2.427       .  S
O929        C948   1.283       .  A
O930       Zr938   2.425       .  S
O930        C949   1.282       .  A
O931        C948   1.287       .  A
O932       Zr940   2.397       .  S
O932        C947   1.277       .  A
O933       Zr938   2.397       .  S
O933       Zr940   2.381       .  S
O934       Zr939   2.391       .  S
O934       Zr940   2.378   1_455  S
O934        H969   0.966       .  S
O935       Zr938   2.400       .  S
O935       Zr955   2.382       .  S
O935        H972   0.965       .  S
O936       Zr939   2.386       .  S
O936       Zr955   2.381   1_455  S
Zr937       O962   2.442   1_655  S
Zr937       O956   2.458       .  S
Zr937       O964   2.461   1_655  S
Zr937       O952   2.470       .  S
Zr937       O943   2.407   1_655  S
Zr937       O944   2.418       .  S
Zr937       O945   2.386       .  S
Zr937       O946   2.393   1_655  S
Zr938       O957   2.438       .  S
Zr938       O950   2.435       .  S
Zr938       O951   2.421       .  S
Zr938       O944   2.401       .  S
Zr938       O945   2.396       .  S
Zr939       O941   2.437       .  S
Zr939       O963   2.436       .  S
Zr939       O965   2.424       .  S
Zr939       O943   2.390       .  S
Zr939       O946   2.392       .  S
Zr940       O966   2.434   1_655  S
Zr940       O967   2.436   1_655  S
Zr940       O942   2.437       .  S
Zr940       O943   2.385   1_655  S
Zr940       O944   2.387       .  S
O941        H978   0.990       .  S
O942        H973   0.990       .  S
O942        H987   0.990       .  S
O944        H970   0.965       .  S
O945       Zr955   2.384       .  S
O946       Zr955   2.382   1_455  S
O946        H971   0.966       .  S
C947       C1064   1.468       .  S
C948       C1550   1.475       .  S
C949       C1319   1.471       .  S
O950        H986   0.990       .  S
O951        C953   1.282       .  A
O952        C953   1.290       .  A
C953       C1208   1.477       .  S
O954       Zr955   2.436       .  S
O954        H983   0.990       .  S
Zr955       O958   2.435       .  S
Zr955       O959   2.438   1_655  S
Zr955       O960   2.389       .  S
O956        C961   1.286       .  A
O957        H974   0.990       .  S
O957        H989   0.990       .  S
O958        H975   0.990       .  S
O959        H979   0.990       .  S
O959        H988   0.990       .  S
O960        C961   1.275       .  A
C961       C1082   1.470       .  S
O962        H981   0.990   1_455  S
O962        H985   0.990   1_455  S
O963        H977   0.989       .  S
O963        H984   0.990       .  S
O964        C968   1.289       .  A
O965        C968   1.283       .  A
O966        H976   0.990       .  S
O967        H980   0.990       .  S
C968       C1694   1.477       .  S
Zr991       O992   2.442   1_655  S
Zr991       O993   2.459       .  S
Zr991       O994   2.460       .  S
Zr991       O997   2.447   1_655  S
Zr991       O999   2.385       .  S
Zr991      O1000   2.393   1_655  S
Zr991      O1001   2.413       .  S
Zr991      O1002   2.404   1_655  S
O992       H1048   0.990   1_455  S
O992       H1056   0.991   1_455  S
O993       C1013   1.287       .  A
O994       C1015   1.287       .  A
O995      Zr1005   2.428       .  S
O995       C1014   1.283       .  A
O996      Zr1004   2.428       .  S
O996       C1015   1.284       .  A
O997       C1014   1.286       .  A
O998      Zr1006   2.392       .  S
O998       C1013   1.276       .  A
O999      Zr1004   2.399       .  S
O999      Zr1006   2.387       .  S
O1000     Zr1005   2.398       .  S
O1000     Zr1006   2.379   1_455  S
O1000      H1035   0.966       .  S
O1001     Zr1004   2.397       .  S
O1001     Zr1021   2.386       .  S
O1001      H1038   0.965       .  S
O1002     Zr1005   2.388       .  S
O1002     Zr1021   2.384   1_455  S
Zr1003     O1028   2.442   1_655  S
Zr1003     O1022   2.450       .  S
Zr1003     O1030   2.448   1_655  S
Zr1003     O1018   2.457       .  S
Zr1003     O1009   2.409   1_655  S
Zr1003     O1010   2.412       .  S
Zr1003     O1011   2.385       .  S
Zr1003     O1012   2.392   1_655  S
Zr1004     O1023   2.436       .  S
Zr1004     O1016   2.435       .  S
Zr1004     O1017   2.428       .  S
Zr1004     O1010   2.400       .  S
Zr1004     O1011   2.396       .  S
Zr1005     O1007   2.436       .  S
Zr1005     O1029   2.437       .  S
Zr1005     O1031   2.431       .  S
Zr1005     O1009   2.390       .  S
Zr1005     O1012   2.395       .  S
Zr1006     O1032   2.436   1_655  S
Zr1006     O1033   2.436   1_655  S
Zr1006     O1008   2.443       .  S
Zr1006     O1009   2.387   1_655  S
Zr1006     O1010   2.384       .  S
O1007      H1044   0.990       .  S
O1008      H1039   0.990       .  S
O1008      H1053   0.989       .  S
O1010      H1036   0.964       .  S
O1011     Zr1021   2.383       .  S
O1012     Zr1021   2.380   1_455  S
O1012      H1037   0.966       .  S
C1013      C1085   1.472       .  S
C1014      C1463   1.472       .  S
C1015      C1247   1.476       .  S
O1016      H1052   0.990       .  S
O1017      C1019   1.283       .  A
O1018      C1019   1.287       .  A
C1019      C1139   1.473       .  S
O1020     Zr1021   2.435       .  S
O1020      H1049   0.990   1_655  S
Zr1021     O1024   2.435       .  S
Zr1021     O1025   2.438   1_655  S
Zr1021     O1026   2.396       .  S
O1022      C1027   1.285       .  A
O1023      H1040   0.990       .  S
O1023      H1055   0.990       .  S
O1024      H1041   0.990       .  S
O1025      H1045   0.990       .  S
O1025      H1054   0.990       .  S
O1026      C1027   1.276       .  A
C1027      C1067   1.470       .  S
O1028      H1047   0.991   1_455  S
O1028      H1051   0.990   1_455  S
O1029      H1043   0.990       .  S
O1029      H1050   0.990       .  S
O1030      C1034   1.286       .  A
O1031      C1034   1.284       .  A
O1032      H1042   0.990       .  S
O1033      H1046   0.990       .  S
C1034      C1604   1.475       .  S
C1057      C1062   1.384       .  A
C1057      C1058   1.403   1_655  A
C1057      N1063   1.339   1_655  A
C1058      C1059   1.401   1_455  A
C1058      H1069   1.082       .  S
C1059      C1068   1.381       .  A
C1059      C1060   1.384       .  A
C1060      C1061   1.403       .  A
C1060      N1066   1.339       .  A
C1061      C1062   1.400       .  A
C1061      H1070   1.082       .  S
C1062      C1065   1.380       .  A
N1063      C1064   1.356   1_455  A
N1063      H1073   1.045       .  S
C1064      C1065   1.394       .  A
C1065      H1071   1.082       .  S
N1066      C1067   1.356       .  A
N1066      H1074   1.045       .  S
C1067      C1068   1.395       .  A
C1068      H1072   1.082   1_655  S
C1075      C1080   1.385       .  A
C1075      C1076   1.401   1_554  A
C1075      N1081   1.346       .  A
C1076      C1077   1.403       .  A
C1076      H1087   1.082       .  S
C1077      C1086   1.371       .  A
C1077      C1078   1.385       .  A
C1078      C1079   1.401       .  A
C1078      N1084   1.347       .  A
C1079      C1080   1.403   1_556  A
C1079      H1088   1.082       .  S
C1080      C1083   1.372       .  A
N1081      C1082   1.354       .  A
N1081      H1091   1.045       .  S
C1082      C1083   1.396       .  A
C1083      H1089   1.083   1_655  S
N1084      C1085   1.355       .  A
N1084      H1092   1.045       .  S
C1085      C1086   1.397       .  A
C1086      H1090   1.083       .  S
C1093      C1098   1.385       .  A
C1093      C1094   1.400       .  A
C1093      N1099   1.345       .  A
C1094      C1095   1.401       .  A
C1094      H1105   1.082       .  S
C1095      C1104   1.370       .  A
C1095      C1096   1.385       .  A
C1096      C1097   1.402       .  A
C1096      N1102   1.347       .  A
C1097      C1098   1.404       .  A
C1097      H1106   1.082       .  S
C1098      C1101   1.373       .  A
N1099      C1100   1.355       .  A
N1099      H1109   1.045       .  S
C1100      C1101   1.397       .  A
C1101      H1107   1.082       .  S
N1102      C1103   1.355       .  A
N1102      H1110   1.045       .  S
C1103      C1104   1.395       .  A
C1104      H1108   1.083       .  S
C1111      C1116   1.384       .  A
C1111      C1112   1.402       .  A
C1111      N1117   1.337       .  A
C1112      C1113   1.399       .  A
C1112      H1123   1.082       .  S
C1113      C1122   1.381       .  A
C1113      C1114   1.384       .  A
C1114      C1115   1.405       .  A
C1114      N1120   1.340       .  A
C1115      C1116   1.401       .  A
C1115      H1124   1.082       .  S
C1116      C1119   1.383       .  A
N1117      C1118   1.355       .  A
N1117      H1127   1.045       .  S
C1118      C1119   1.395       .  A
C1119      H1125   1.082       .  S
N1120      C1121   1.357       .  A
N1120      H1128   1.045       .  S
C1121      C1122   1.395       .  A
C1122      H1126   1.082       .  S
C1129      C1134   1.384       .  A
C1129      C1130   1.403       .  A
C1129      N1135   1.342       .  A
C1130      C1131   1.402       .  A
C1130      H1141   1.082       .  S
C1131      C1140   1.378       .  A
C1131      C1132   1.384       .  A
C1132      C1133   1.406       .  A
C1132      N1138   1.345       .  A
C1133      C1134   1.405       .  A
C1133      H1142   1.082       .  S
C1134      C1137   1.381       .  A
N1135      C1136   1.356       .  A
N1135      H1145   1.045       .  S
C1136      C1137   1.397       .  A
C1137      H1143   1.083       .  S
N1138      C1139   1.357       .  A
N1138      H1146   1.045       .  S
C1139      C1140   1.395       .  A
C1140      H1144   1.082       .  S
C1147      C1152   1.384       .  A
C1147      C1148   1.405       .  A
C1147      N1153   1.344       .  A
C1148      C1149   1.404       .  A
C1148      H1159   1.082       .  S
C1149      C1158   1.380       .  A
C1149      C1150   1.384       .  A
C1150      C1151   1.407       .  A
C1150      N1156   1.346       .  A
C1151      C1152   1.406       .  A
C1151      H1160   1.082       .  S
C1152      C1155   1.382       .  A
N1153      C1154   1.357       .  A
N1153      H1163   1.045       .  S
C1154      C1155   1.397       .  A
C1155      H1161   1.082       .  S
N1156      C1157   1.357       .  A
N1156      H1164   1.045       .  S
C1157      C1158   1.397       .  A
C1158      H1162   1.082       .  S
C1165      C1170   1.384       .  A
C1165      C1166   1.403       .  A
C1165      N1171   1.340       .  A
C1166      C1167   1.401       .  A
C1166      H1177   1.082       .  S
C1167      C1176   1.380       .  A
C1167      C1168   1.384       .  A
C1168      C1169   1.403       .  A
C1168      N1174   1.341       .  A
C1169      C1170   1.400       .  A
C1169      H1178   1.082       .  S
C1170      C1173   1.378       .  A
N1171      C1172   1.356       .  A
N1171      H1181   1.045       .  S
C1172      C1173   1.394       .  A
C1173      H1179   1.082       .  S
N1174      C1175   1.357       .  A
N1174      H1182   1.045       .  S
C1175      C1176   1.395       .  A
C1176      H1180   1.082       .  S
C1183      C1188   1.385       .  A
C1183      C1184   1.400       .  A
C1183      N1189   1.345       .  A
C1184      C1185   1.401       .  A
C1184      H1195   1.082       .  S
C1185      C1194   1.371       .  A
C1185      C1186   1.385       .  A
C1186      C1187   1.403       .  A
C1186      N1192   1.346       .  A
C1187      C1188   1.404       .  A
C1187      H1196   1.082       .  S
C1188      C1191   1.374       .  A
N1189      C1190   1.354       .  A
N1189      H1199   1.045       .  S
C1190      C1191   1.397       .  A
C1191      H1197   1.083       .  S
N1192      C1193   1.356       .  A
N1192      H1200   1.045       .  S
C1193      C1194   1.395       .  A
C1194      H1198   1.083       .  S
C1201      C1206   1.384       .  A
C1201      C1202   1.405       .  A
C1201      N1207   1.346       .  A
C1202      C1203   1.405       .  A
C1202      H1213   1.082       .  S
C1203      C1212   1.380       .  A
C1203      C1204   1.384       .  A
C1204      C1205   1.404       .  A
C1204      N1210   1.344       .  A
C1205      C1206   1.404       .  A
C1205      H1214   1.082       .  S
C1206      C1209   1.378       .  A
N1207      C1208   1.357       .  A
N1207      H1217   1.045       .  S
C1208      C1209   1.398       .  A
C1209      H1215   1.083       .  S
N1210      C1211   1.356       .  A
N1210      H1218   1.045       .  S
C1211      C1212   1.396       .  A
C1212      H1216   1.083       .  S
C1219      C1224   1.384       .  A
C1219      C1220   1.405       .  A
C1219      N1225   1.343       .  A
C1220      C1221   1.403       .  A
C1220      H1231   1.082       .  S
C1221      C1230   1.381       .  A
C1221      C1222   1.384       .  A
C1222      C1223   1.403       .  A
C1222      N1228   1.341       .  A
C1223      C1224   1.401       .  A
C1223      H1232   1.082       .  S
C1224      C1227   1.378       .  A
N1225      C1226   1.356       .  A
N1225      H1235   1.045       .  S
C1226      C1227   1.395       .  A
C1227      H1233   1.082       .  S
N1228      C1229   1.356       .  A
N1228      H1236   1.045       .  S
C1229      C1230   1.396       .  A
C1230      H1234   1.082       .  S
C1237      C1242   1.384       .  A
C1237      C1238   1.402       .  A
C1237      N1243   1.343       .  A
C1238      C1239   1.401       .  A
C1238      H1249   1.082       .  S
C1239      C1248   1.377       .  A
C1239      C1240   1.384       .  A
C1240      C1241   1.408       .  A
C1240      N1246   1.347       .  A
C1241      C1242   1.407       .  A
C1241      H1250   1.082       .  S
C1242      C1245   1.382       .  A
N1243      C1244   1.355       .  A
N1243      H1253   1.045       .  S
C1244      C1245   1.399       .  A
C1245      H1251   1.083       .  S
N1246      C1247   1.358       .  A
N1246      H1254   1.045       .  S
C1247      C1248   1.395       .  A
C1248      H1252   1.082       .  S
C1255      C1260   1.384       .  A
C1255      C1256   1.406       .  A
C1255      N1261   1.345       .  A
C1256      C1257   1.405       .  A
C1256      H1267   1.082       .  S
C1257      C1266   1.380       .  A
C1257      C1258   1.384       .  A
C1258      C1259   1.405       .  A
C1258      N1264   1.345       .  A
C1259      C1260   1.404       .  A
C1259      H1268   1.082       .  S
C1260      C1263   1.380       .  A
N1261      C1262   1.358       .  A
N1261      H1271   1.045       .  S
C1262      C1263   1.397       .  A
C1263      H1269   1.082       .  S
N1264      C1265   1.356       .  A
N1264      H1272   1.045       .  S
C1265      C1266   1.398       .  A
C1266      H1270   1.083       .  S
C1273      C1278   1.385       .  A
C1273      C1274   1.401       .  A
C1273      N1279   1.345       .  A
C1274      C1275   1.402       .  A
C1274      H1285   1.082       .  S
C1275      C1284   1.372       .  A
C1275      C1276   1.385       .  A
C1276      C1277   1.401       .  A
C1276      N1282   1.345       .  A
C1277      C1278   1.402       .  A
C1277      H1286   1.082       .  S
C1278      C1281   1.372       .  A
N1279      C1280   1.355       .  A
N1279      H1289   1.045       .  S
C1280      C1281   1.396       .  A
C1281      H1287   1.083       .  S
N1282      C1283   1.355       .  A
N1282      H1290   1.045       .  S
C1283      C1284   1.396       .  A
C1284      H1288   1.083       .  S
C1291      C1296   1.384       .  A
C1291      C1292   1.405       .  A
C1291      N1297   1.341       .  A
C1292      C1293   1.402       .  A
C1292      H1303   1.082       .  S
C1293      C1302   1.382       .  A
C1293      C1294   1.384       .  A
C1294      C1295   1.403       .  A
C1294      N1300   1.339       .  A
C1295      C1296   1.400       .  A
C1295      H1304   1.082       .  S
C1296      C1299   1.379       .  A
N1297      C1298   1.357       .  A
N1297      H1307   1.045       .  S
C1298      C1299   1.394       .  A
C1299      H1305   1.082       .  S
N1300      C1301   1.356       .  A
N1300      H1308   1.045       .  S
C1301      C1302   1.396       .  A
C1302      H1306   1.082       .  S
C1309      C1314   1.384       .  A
C1309      C1310   1.404       .  A
C1309      N1315   1.343       .  A
C1310      C1311   1.403       .  A
C1310      H1321   1.082       .  S
C1311      C1320   1.379       .  A
C1311      C1312   1.384       .  A
C1312      C1313   1.404       .  A
C1312      N1318   1.343       .  A
C1313      C1314   1.403       .  A
C1313      H1322   1.082       .  S
C1314      C1317   1.380       .  A
N1315      C1316   1.357       .  A
N1315      H1325   1.045       .  S
C1316      C1317   1.395       .  A
C1317      H1323   1.082       .  S
N1318      C1319   1.356       .  A
N1318      H1326   1.045       .  S
C1319      C1320   1.396       .  A
C1320      H1324   1.083       .  S
C1327      C1332   1.384       .  A
C1327      C1328   1.404       .  A
C1327      N1333   1.345       .  A
C1328      C1329   1.404       .  A
C1328      H1339   1.082       .  S
C1329      C1338   1.377       .  A
C1329      C1330   1.384       .  A
C1330      C1331   1.408       .  A
C1330      N1336   1.349       .  A
C1331      C1332   1.408       .  A
C1331      H1340   1.082       .  S
C1332      C1335   1.383       .  A
N1333      C1334   1.356       .  A
N1333      H1343   1.045       .  S
C1334      C1335   1.398       .  A
C1335      H1341   1.082       .  S
N1336      C1337   1.359       .  A
N1336      H1344   1.045       .  S
C1337      C1338   1.397       .  A
C1338      H1342   1.082       .  S
C1345      C1350   1.385       .  A
C1345      C1346   1.399       .  A
C1345      N1351   1.339       .  A
C1346      C1347   1.398       .  A
C1346      H1357   1.082       .  S
C1347      C1356   1.373       .  A
C1347      C1348   1.385       .  A
C1348      C1349   1.406       .  A
C1348      N1354   1.345       .  A
C1349      C1350   1.405       .  A
C1349      H1358   1.082       .  S
C1350      C1353   1.381       .  A
N1351      C1352   1.354       .  A
N1351      H1361   1.045       .  S
C1352      C1353   1.397       .  A
C1353      H1359   1.082       .  S
N1354      C1355   1.356       .  A
N1354      H1362   1.045       .  S
C1355      C1356   1.392       .  A
C1356      H1360   1.083       .  S
C1363      C1368   1.384       .  A
C1363      C1364   1.408       .  A
C1363      N1369   1.346       .  A
C1364      C1365   1.407       .  A
C1364      H1375   1.082       .  S
C1365      C1374   1.383       .  A
C1365      C1366   1.384       .  A
C1366      C1367   1.400       .  A
C1366      N1372   1.340       .  A
C1367      C1368   1.399       .  A
C1367      H1376   1.082       .  S
C1368      C1371   1.375       .  A
N1369      C1370   1.358       .  A
N1369      H1379   1.045       .  S
C1370      C1371   1.393       .  A
C1371      H1377   1.082       .  S
N1372      C1373   1.355       .  A
N1372      H1380   1.045       .  S
C1373      C1374   1.398       .  A
C1374      H1378   1.082       .  S
C1381      C1386   1.385   1_565  A
C1381      C1382   1.400       .  A
C1381      N1387   1.345       .  A
C1382      C1383   1.401       .  A
C1382      H1393   1.082       .  S
C1383      C1392   1.370       .  A
C1383      C1384   1.385   1_565  A
C1384      C1385   1.402       .  A
C1384      N1390   1.347       .  A
C1385      C1386   1.404       .  A
C1385      H1394   1.082       .  S
C1386      C1389   1.373       .  A
N1387      C1388   1.355       .  A
N1387      H1397   1.045       .  S
C1388      C1389   1.396   1_565  A
C1389      H1395   1.083       .  S
N1390      C1391   1.356       .  A
N1390      H1398   1.045       .  S
C1391      C1392   1.395   1_545  A
C1392      H1396   1.083       .  S
C1399      C1404   1.385   1_545  A
C1399      C1400   1.399       .  A
C1399      N1405   1.344       .  A
C1400      C1401   1.401       .  A
C1400      H1411   1.082       .  S
C1401      C1410   1.369       .  A
C1401      C1402   1.385   1_545  A
C1402      C1403   1.401       .  A
C1402      N1408   1.346       .  A
C1403      C1404   1.403       .  A
C1403      H1412   1.082       .  S
C1404      C1407   1.371       .  A
N1405      C1406   1.354   1_545  A
N1405      H1415   1.045       .  S
C1406      C1407   1.396       .  A
C1407      H1413   1.083       .  S
N1408      C1409   1.355       .  A
N1408      H1416   1.045       .  S
C1409      C1410   1.395   1_565  A
C1410      H1414   1.083       .  S
C1417      C1422   1.385       .  A
C1417      C1418   1.401       .  A
C1417      N1423   1.340       .  A
C1418      C1419   1.399       .  A
C1418      H1429   1.083       .  S
C1419      C1428   1.375       .  A
C1419      C1420   1.385       .  A
C1420      C1421   1.405       .  A
C1420      N1426   1.344       .  A
C1421      C1422   1.404       .  A
C1421      H1430   1.082       .  S
C1422      C1425   1.381       .  A
N1423      C1424   1.355       .  A
N1423      H1433   1.045       .  S
C1424      C1425   1.396       .  A
C1425      H1431   1.082       .  S
N1426      C1427   1.355       .  A
N1426      H1434   1.045       .  S
C1427      C1428   1.394       .  A
C1428      H1432   1.083       .  S
C1435      C1440   1.384       .  A
C1435      C1436   1.401       .  A
C1435      N1441   1.341       .  A
C1436      C1437   1.399       .  A
C1436      H1447   1.083       .  S
C1437      C1446   1.374       .  A
C1437      C1438   1.385       .  A
C1438      C1439   1.406       .  A
C1438      N1444   1.346       .  A
C1439      C1440   1.406       .  A
C1439      H1448   1.082       .  S
C1440      C1443   1.382       .  A
N1441      C1442   1.355       .  A
N1441      H1451   1.045       .  S
C1442      C1443   1.398       .  A
C1443      H1449   1.082       .  S
N1444      C1445   1.356       .  A
N1444      H1452   1.045       .  S
C1445      C1446   1.393       .  A
C1446      H1450   1.083       .  S
C1453      C1458   1.384       .  A
C1453      C1454   1.407       .  A
C1453      N1459   1.348       .  A
C1454      C1455   1.407       .  A
C1454      H1465   1.082       .  S
C1455      C1464   1.381       .  A
C1455      C1456   1.385       .  A
C1456      C1457   1.401       .  A
C1456      N1462   1.343       .  A
C1457      C1458   1.400       .  A
C1457      H1466   1.082       .  S
C1458      C1461   1.373       .  A
N1459      C1460   1.357       .  A
N1459      H1469   1.045       .  S
C1460      C1461   1.394       .  A
C1461      H1467   1.083       .  S
N1462      C1463   1.354       .  A
N1462      H1470   1.045       .  S
C1463      C1464   1.397       .  A
C1464      H1468   1.082       .  S
C1471      C1476   1.384       .  A
C1471      C1472   1.406       .  A
C1471      N1477   1.347       .  A
C1472      C1473   1.406       .  A
C1472      H1483   1.082       .  S
C1473      C1482   1.381       .  A
C1473      C1474   1.385       .  A
C1474      C1475   1.401       .  A
C1474      N1480   1.342       .  A
C1475      C1476   1.400       .  A
C1475      H1484   1.083       .  S
C1476      C1479   1.373       .  A
N1477      C1478   1.357       .  A
N1477      H1487   1.045       .  S
C1478      C1479   1.395       .  A
C1479      H1485   1.083       .  S
N1480      C1481   1.355       .  A
N1480      H1488   1.045       .  S
C1481      C1482   1.396       .  A
C1482      H1486   1.082       .  S
C1489      C1494   1.384       .  A
C1489      C1490   1.406       .  A
C1489      N1495   1.347       .  A
C1490      C1491   1.406       .  A
C1490      H1501   1.082       .  S
C1491      C1500   1.380       .  A
C1491      C1492   1.384       .  A
C1492      C1493   1.403       .  A
C1492      N1498   1.344       .  A
C1493      C1494   1.403       .  A
C1493      H1502   1.082       .  S
C1494      C1497   1.376       .  A
N1495      C1496   1.357       .  A
N1495      H1505   1.045       .  S
C1496      C1497   1.396       .  A
C1497      H1503   1.082       .  S
N1498      C1499   1.356       .  A
N1498      H1506   1.045       .  S
C1499      C1500   1.397       .  A
C1500      H1504   1.082       .  S
C1507      C1512   1.385       .  A
C1507      C1508   1.401       .  A
C1507      N1513   1.345       .  A
C1508      C1509   1.402       .  A
C1508      H1519   1.082       .  S
C1509      C1518   1.371       .  A
C1509      C1510   1.385       .  A
C1510      C1511   1.403       .  A
C1510      N1516   1.347       .  A
C1511      C1512   1.405       .  A
C1511      H1520   1.082       .  S
C1512      C1515   1.375       .  A
N1513      C1514   1.354       .  A
N1513      H1523   1.045       .  S
C1514      C1515   1.398       .  A
C1515      H1521   1.083       .  S
N1516      C1517   1.355       .  A
N1516      H1524   1.045       .  S
C1517      C1518   1.396       .  A
C1518      H1522   1.083       .  S
C1525      C1530   1.384       .  A
C1525      C1526   1.404       .  A
C1525      N1531   1.340       .  A
C1526      C1527   1.401       .  A
C1526      H1537   1.082       .  S
C1527      C1536   1.380       .  A
C1527      C1528   1.384       .  A
C1528      C1529   1.401       .  A
C1528      N1534   1.337       .  A
C1529      C1530   1.399       .  A
C1529      H1538   1.082       .  S
C1530      C1533   1.378       .  A
N1531      C1532   1.356       .  A
N1531      H1541   1.045       .  S
C1532      C1533   1.394       .  A
C1533      H1539   1.082       .  S
N1534      C1535   1.355       .  A
N1534      H1542   1.045       .  S
C1535      C1536   1.395       .  A
C1536      H1540   1.082       .  S
C1543      C1548   1.384       .  A
C1543      C1544   1.402       .  A
C1543      N1549   1.343       .  A
C1544      C1545   1.402       .  A
C1544      H1555   1.082       .  S
C1545      C1554   1.375       .  A
C1545      C1546   1.384       .  A
C1546      C1547   1.410       .  A
C1546      N1552   1.351       .  A
C1547      C1548   1.409       .  A
C1547      H1556   1.082       .  S
C1548      C1551   1.385       .  A
N1549      C1550   1.355       .  A
N1549      H1559   1.045       .  S
C1550      C1551   1.399       .  A
C1551      H1557   1.082       .  S
N1552      C1553   1.360       .  A
N1552      H1560   1.044       .  S
C1553      C1554   1.396       .  A
C1554      H1558   1.082       .  S
C1561      C1566   1.384       .  A
C1561      C1562   1.407       .  A
C1561      N1567   1.347       .  A
C1562      C1563   1.406       .  A
C1562      H1573   1.082       .  S
C1563      C1572   1.382       .  A
C1563      C1564   1.384       .  A
C1564      C1565   1.403       .  A
C1564      N1570   1.343       .  A
C1565      C1566   1.402       .  A
C1565      H1574   1.082       .  S
C1566      C1569   1.378       .  A
N1567      C1568   1.357       .  A
N1567      H1577   1.045       .  S
C1568      C1569   1.395       .  A
C1569      H1575   1.082       .  S
N1570      C1571   1.356       .  A
N1570      H1578   1.045       .  S
C1571      C1572   1.397       .  A
C1572      H1576   1.082       .  S
C1579      C1584   1.384       .  A
C1579      C1580   1.402       .  A
C1579      N1585   1.342       .  A
C1580      C1581   1.401       .  A
C1580      H1591   1.082       .  S
C1581      C1590   1.377       .  A
C1581      C1582   1.384       .  A
C1582      C1583   1.406       .  A
C1582      N1588   1.344       .  A
C1583      C1584   1.405       .  A
C1583      H1592   1.082       .  S
C1584      C1587   1.382       .  A
N1585      C1586   1.356       .  A
N1585      H1595   1.045       .  S
C1586      C1587   1.398       .  A
C1587      H1593   1.082       .  S
N1588      C1589   1.357       .  A
N1588      H1596   1.045       .  S
C1589      C1590   1.394       .  A
C1590      H1594   1.082       .  S
C1597      C1602   1.384       .  A
C1597      C1598   1.401       .  A
C1597      N1603   1.341       .  A
C1598      C1599   1.399       .  A
C1598      H1609   1.082       .  S
C1599      C1608   1.375       .  A
C1599      C1600   1.384       .  A
C1600      C1601   1.407       .  A
C1600      N1606   1.347       .  A
C1601      C1602   1.407       .  A
C1601      H1610   1.082       .  S
C1602      C1605   1.383       .  A
N1603      C1604   1.355       .  A
N1603      H1613   1.045       .  S
C1604      C1605   1.399       .  A
C1605      H1611   1.082       .  S
N1606      C1607   1.357       .  A
N1606      H1614   1.045       .  S
C1607      C1608   1.393       .  A
C1608      H1612   1.083       .  S
C1615      C1620   1.385       .  A
C1615      C1616   1.401       .  A
C1615      N1621   1.342       .  A
C1616      C1617   1.400       .  A
C1616      H1627   1.082       .  S
C1617      C1626   1.374       .  A
C1617      C1618   1.384       .  A
C1618      C1619   1.408       .  A
C1618      N1624   1.348       .  A
C1619      C1620   1.408       .  A
C1619      H1628   1.082       .  S
C1620      C1623   1.383       .  A
N1621      C1622   1.355       .  A
N1621      H1631   1.045       .  S
C1622      C1623   1.398       .  A
C1623      H1629   1.082       .  S
N1624      C1625   1.358       .  A
N1624      H1632   1.045       .  S
C1625      C1626   1.393       .  A
C1626      H1630   1.083       .  S
C1633      C1638   1.384       .  A
C1633      C1634   1.406       .  A
C1633      N1639   1.347       .  A
C1634      C1635   1.406       .  A
C1634      H1645   1.082       .  S
C1635      C1644   1.379       .  A
C1635      C1636   1.385       .  A
C1636      C1637   1.401       .  A
C1636      N1642   1.343       .  A
C1637      C1638   1.401       .  A
C1637      H1646   1.082       .  S
C1638      C1641   1.375       .  A
N1639      C1640   1.357       .  A
N1639      H1649   1.045       .  S
C1640      C1641   1.396       .  A
C1641      H1647   1.083       .  S
N1642      C1643   1.354       .  A
N1642      H1650   1.045       .  S
C1643      C1644   1.397       .  A
C1644      H1648   1.083       .  S
C1651      C1656   1.384       .  A
C1651      C1652   1.402       .  A
C1651      N1657   1.339       .  A
C1652      C1653   1.399       .  A
C1652      H1663   1.082       .  S
C1653      C1662   1.379       .  A
C1653      C1654   1.384       .  A
C1654      C1655   1.404       .  A
C1654      N1660   1.340       .  A
C1655      C1656   1.402       .  A
C1655      H1664   1.082       .  S
C1656      C1659   1.381       .  A
N1657      C1658   1.356       .  A
N1657      H1667   1.045       .  S
C1658      C1659   1.395       .  A
C1659      H1665   1.082       .  S
N1660      C1661   1.357       .  A
N1660      H1668   1.045       .  S
C1661      C1662   1.394       .  A
C1662      H1666   1.082       .  S
C1669      C1674   1.385       .  A
C1669      C1670   1.401       .  A
C1669      N1675   1.347       .  A
C1670      C1671   1.403       .  A
C1670      H1681   1.082       .  S
C1671      C1680   1.370       .  A
C1671      C1672   1.385       .  A
C1672      C1673   1.401       .  A
C1672      N1678   1.347       .  A
C1673      C1674   1.403       .  A
C1673      H1682   1.082       .  S
C1674      C1677   1.370       .  A
N1675      C1676   1.355       .  A
N1675      H1685   1.045       .  S
C1676      C1677   1.396       .  A
C1677      H1683   1.083       .  S
N1678      C1679   1.355       .  A
N1678      H1686   1.045       .  S
C1679      C1680   1.396       .  A
C1680      H1684   1.083       .  S
C1687      C1692   1.384       .  A
C1687      C1688   1.407       .  A
C1687      N1693   1.348       .  A
C1688      C1689   1.407       .  A
C1688      H1699   1.082       .  S
C1689      C1698   1.383       .  A
C1689      C1690   1.384       .  A
C1690      C1691   1.403       .  A
C1690      N1696   1.344       .  A
C1691      C1692   1.402       .  A
C1691      H1700   1.082       .  S
C1692      C1695   1.377       .  A
N1693      C1694   1.357       .  A
N1693      H1703   1.045       .  S
C1694      C1695   1.396       .  A
C1695      H1701   1.083       .  S
N1696      C1697   1.356       .  A
N1696      H1704   1.045       .  S
C1697      C1698   1.398       .  A
C1698      H1702   1.082       .  S
C1705      C1710   1.385       .  A
C1705      C1706   1.401       .  A
C1705      N1711   1.341       .  A
C1706      C1707   1.400       .  A
C1706      H1717   1.083       .  S
C1707      C1716   1.374       .  A
C1707      C1708   1.384       .  A
C1708      C1709   1.406       .  A
C1708      N1714   1.346       .  A
C1709      C1710   1.406       .  A
C1709      H1718   1.082       .  S
C1710      C1713   1.382       .  A
N1711      C1712   1.355       .  A
N1711      H1721   1.045       .  S
C1712      C1713   1.397       .  A
C1713      H1719   1.082       .  S
N1714      C1715   1.357       .  A
N1714      H1722   1.045       .  S
C1715      C1716   1.394       .  A
C1716      H1720   1.083       .  S
C1723      C1728   1.384       .  A
C1723      C1724   1.407       .  A
C1723      N1729   1.345       .  A
C1724      C1725   1.406       .  A
C1724      H1735   1.082       .  S
C1725      C1734   1.383       .  A
C1725      C1726   1.384       .  A
C1726      C1727   1.404       .  A
C1726      N1732   1.344       .  A
C1727      C1728   1.402       .  A
C1727      H1736   1.082       .  S
C1728      C1731   1.378       .  A
N1729      C1730   1.357       .  A
N1729      H1739   1.045       .  S
C1730      C1731   1.395       .  A
C1731      H1737   1.082       .  S
N1732      C1733   1.356       .  A
N1732      H1740   1.045       .  S
C1733      C1734   1.398       .  A
C1734      H1738   1.082       .  S
C1741      C1746   1.384       .  A
C1741      C1742   1.406       .  A
C1741      N1747   1.346       .  A
C1742      C1743   1.405       .  A
C1742      H1753   1.082       .  S
C1743      C1752   1.382       .  A
C1743      C1744   1.384       .  A
C1744      C1745   1.404       .  A
C1744      N1750   1.343       .  A
C1745      C1746   1.403       .  A
C1745      H1754   1.082       .  S
C1746      C1749   1.378       .  A
N1747      C1748   1.356       .  A
N1747      H1757   1.045       .  S
C1748      C1749   1.397       .  A
C1749      H1755   1.083       .  S
N1750      C1751   1.356       .  A
N1750      H1758   1.045       .  S
C1751      C1752   1.397       .  A
C1752      H1756   1.082       .  S
C1759      C1764   1.384       .  A
C1759      C1760   1.403       .  A
C1759      N1765   1.343       .  A
C1760      C1761   1.403       .  A
C1760      H1771   1.083       .  S
C1761      C1770   1.377       .  A
C1761      C1762   1.385       .  A
C1762      C1763   1.403       .  A
C1762      N1768   1.345       .  A
C1763      C1764   1.402       .  A
C1763      H1772   1.082       .  S
C1764      C1767   1.378       .  A
N1765      C1766   1.357       .  A
N1765      H1775   1.045       .  S
C1766      C1767   1.395       .  A
C1767      H1773   1.082       .  S
N1768      C1769   1.355       .  A
N1768      H1776   1.045       .  S
C1769      C1770   1.396       .  A
C1770      H1774   1.083       .  S
C1777      C1782   1.385       .  A
C1777      C1778   1.401       .  A
C1777      N1783   1.342       .  A
C1778      C1779   1.400       .  A
C1778      H1789   1.082       .  S
C1779      C1788   1.374       .  A
C1779      C1780   1.385       .  A
C1780      C1781   1.403       .  A
C1780      N1786   1.343       .  A
C1781      C1782   1.403       .  A
C1781      H1790   1.082       .  S
C1782      C1785   1.377       .  A
N1783      C1784   1.355       .  A
N1783      H1793   1.045       .  S
C1784      C1785   1.396       .  A
C1785      H1791   1.083       .  S
N1786      C1787   1.356       .  A
N1786      H1794   1.045       .  S
C1787      C1788   1.393       .  A
C1788      H1792   1.082       .  S
C1795      C1800   1.385       .  A
C1795      C1796   1.404       .  A
C1795      N1801   1.344       .  A
C1796      C1797   1.403       .  A
C1796      H1807   1.082       .  S
C1797      C1806   1.379       .  A
C1797      C1798   1.384       .  A
C1798      C1799   1.403       .  A
C1798      N1804   1.342       .  A
C1799      C1800   1.402       .  A
C1799      H1808   1.082       .  S
C1800      C1803   1.377       .  A
N1801      C1802   1.356       .  A
N1801      H1811   1.045       .  S
C1802      C1803   1.395       .  A
C1803      H1809   1.083       .  S
N1804      C1805   1.356       .  A
N1804      H1812   1.045       .  S
C1805      C1806   1.395       .  A
C1806      H1810   1.082       .  S
C1813      C1818   1.385   1_565  A
C1813      C1814   1.401       .  A
C1813      N1819   1.347       .  A
C1814      C1815   1.403       .  A
C1814      H1825   1.082       .  S
C1815      C1824   1.371       .  A
C1815      C1816   1.385   1_565  A
C1816      C1817   1.401       .  A
C1816      N1822   1.346       .  A
C1817      C1818   1.403       .  A
C1817      H1826   1.082       .  S
C1818      C1821   1.372       .  A
N1819      C1820   1.355   1_565  A
N1819      H1829   1.045       .  S
C1820      C1821   1.397       .  A
C1821      H1827   1.083       .  S
N1822      C1823   1.355       .  A
N1822      H1830   1.045       .  S
C1823      C1824   1.396   1_545  A
C1824      H1828   1.083       .  S
C1831      C1836   1.384   1_545  A
C1831      C1832   1.405       .  A
C1831      N1837   1.339       .  A
C1832      C1833   1.402   1_556  A
C1832      H1843   1.083       .  S
C1833      C1842   1.382       .  A
C1833      C1834   1.384   1_545  A
C1834      C1835   1.402       .  A
C1834      N1840   1.338       .  A
C1835      C1836   1.398   1_554  A
C1835      H1844   1.082       .  S
C1836      C1839   1.379       .  A
N1837      C1838   1.357   1_545  A
N1837      H1847   1.045       .  S
C1838      C1839   1.393       .  A
C1839      H1845   1.082       .  S
N1840      C1841   1.355   1_565  A
N1840      H1848   1.045       .  S
C1841      C1842   1.396       .  A
C1842      H1846   1.082       .  S
C1849      C1854   1.385       .  A
C1849      C1850   1.400       .  A
C1849      N1855   1.340       .  A
C1850      C1851   1.398       .  A
C1850      H1861   1.083       .  S
C1851      C1860   1.372       .  A
C1851      C1852   1.385       .  A
C1852      C1853   1.404       .  A
C1852      N1858   1.343       .  A
C1853      C1854   1.403       .  A
C1853      H1862   1.082       .  S
C1854      C1857   1.379       .  A
N1855      C1856   1.354       .  A
N1855      H1865   1.045       .  S
C1856      C1857   1.396       .  A
C1857      H1863   1.082       .  S
N1858      C1859   1.355       .  A
N1858      H1866   1.045       .  S
C1859      C1860   1.393       .  A
C1860      H1864   1.083       .  S
C1867      C1872   1.384       .  A
C1867      C1868   1.406       .  A
C1867      N1873   1.346       .  A
C1868      C1869   1.406       .  A
C1868      H1879   1.082       .  S
C1869      C1878   1.382       .  A
C1869      C1870   1.384       .  A
C1870      C1871   1.401       .  A
C1870      N1876   1.341       .  A
C1871      C1872   1.400       .  A
C1871      H1880   1.082       .  S
C1872      C1875   1.375       .  A
N1873      C1874   1.357       .  A
N1873      H1883   1.045       .  S
C1874      C1875   1.395       .  A
C1875      H1881   1.083       .  S
N1876      C1877   1.355       .  A
N1876      H1884   1.045       .  S
C1877      C1878   1.397       .  A
C1878      H1882   1.082       .  S
C1885      C1890   1.384       .  A
C1885      C1886   1.403       .  A
C1885      N1891   1.344       .  A
C1886      C1887   1.403       .  A
C1886      H1897   1.082       .  S
C1887      C1896   1.377       .  A
C1887      C1888   1.384       .  A
C1888      C1889   1.404       .  A
C1888      N1894   1.344       .  A
C1889      C1890   1.403       .  A
C1889      H1898   1.082       .  S
C1890      C1893   1.377       .  A
N1891      C1892   1.356       .  A
N1891      H1901   1.045       .  S
C1892      C1893   1.396       .  A
C1893      H1899   1.082       .  S
N1894      C1895   1.357       .  A
N1894      H1902   1.045       .  S
C1895      C1896   1.395       .  A
C1896      H1900   1.082       .  S
C1903      C1908   1.384       .  A
C1903      C1904   1.403       .  A
C1903      N1909   1.342       .  A
C1904      C1905   1.401       .  A
C1904      H1915   1.082       .  S
C1905      C1914   1.377       .  A
C1905      C1906   1.384       .  A
C1906      C1907   1.404       .  A
C1906      N1912   1.343       .  A
C1907      C1908   1.403       .  A
C1907      H1916   1.082       .  S
C1908      C1911   1.379       .  A
N1909      C1910   1.356       .  A
N1909      H1919   1.045       .  S
C1910      C1911   1.396       .  A
C1911      H1917   1.082       .  S
N1912      C1913   1.355       .  A
N1912      H1920   1.045       .  S
C1913      C1914   1.395       .  A
C1914      H1918   1.083       .  S
