geometry optimzed in LAMMPS
_audit_creation_date              2020-11-30 
_audit_creation_method            'lammps2cif' 
_symmetry_space_group_name_H-M    'P1' 
_symmetry_Int_Tables_number       1 
_symmetry_cell_setting            triclinic 
loop_ 
_symmetry_equiv_pos_as_xyz 
  x,y,z 
_cell_length_a                    75.57838256 
_cell_length_b                    75.5851575424262 
_cell_length_c                    39.62274556671644 
_cell_angle_alpha                 90.11362842358564 
_cell_angle_beta                  89.81316543912207 
_cell_angle_gamma                 90.11727471281105 
loop_ 
_atom_site_label 
_atom_site_type_symbol 
_atom_site_fract_x 
_atom_site_fract_y 
_atom_site_fract_z 
_atom_site_charge 
Zr1        Zr  0.60437605  0.89211128  0.23549654     2.17500
O2          O  0.58563680  0.91420991  0.26281654    -0.51600
O3          O  0.61216373  0.88660756  0.29457507    -0.74800
O4          O  0.57363807  0.88217103  0.24412716    -0.81500
O5          O  0.63716996  0.92837029  0.20764243    -0.83300
O6          O  0.56965242  0.85548955  0.21889931    -0.78900
O7          O  0.61179718  0.92370517  0.23736295    -0.90600
O8          O  0.63525282  0.86748028  0.29674278    -0.76500
O9          O  0.60898808  0.86098352  0.23900393    -0.86000
O10         O  0.63569175  0.88809302  0.23775705    -0.85700
O11         O  0.59146571  0.88003521  0.18473678    -0.72400
O12         O  0.61622134  0.90438516  0.18424917    -0.84600
Zr13       Zr  0.63953430  0.85630844  0.13941467     2.26400
Zr14       Zr  0.59671199  0.84876560  0.18824134     2.06300
Zr15       Zr  0.64745370  0.89988561  0.18632902     2.10000
Zr16       Zr  0.64023933  0.85692608  0.24033358     1.78800
O17         O  0.65689101  0.92170156  0.14481326    -0.93400
O18         O  0.63016697  0.83125080  0.27225695    -0.41200
O19         O  0.65227624  0.86870259  0.18948293    -0.77800
O20         O  0.62802831  0.84363881  0.19076413    -0.96500
O21         O  0.60838661  0.86065731  0.13680972    -0.89800
O22         O  0.63528791  0.88752420  0.13572344    -0.92700
C23         C  0.62405507  0.87787058  0.31057913     1.01100
C24         C  0.62397057  0.93385234  0.22532471     1.14000
C25         C  0.56403571  0.86866619  0.23633679     1.04800
O26         O  0.59153995  0.82352150  0.22512773    -0.94800
O27         O  0.60276778  0.82182233  0.15673108    -0.90600
O28         O  0.62904937  0.82600005  0.13001170    -0.83700
C29         C  0.61560914  0.81642213  0.13811416     1.11400
O30         O  0.58334891  0.91626720  0.14052095    -0.96800
Zr31       Zr  0.60407715  0.89180035  0.13408945     1.88900
O32         O  0.63394531  0.86345325  0.08052228    -0.73400
O33         O  0.57183202  0.84278862  0.15096933    -0.52700
O34         O  0.57572468  0.88433047  0.10846045    -0.97400
O35         O  0.61407412  0.91814150  0.10408074    -0.54600
O36         O  0.61000158  0.88147831  0.07766238    -0.74000
C37         C  0.62212004  0.87200516  0.06418226     0.98400
O38         O  0.66160504  0.83700916  0.11341171    -0.62800
O39         O  0.67020508  0.90951105  0.22587698    -0.57600
O40         O  0.67089226  0.86385643  0.13580662    -0.94300
O41         O  0.67567510  0.88970990  0.16390646    -0.92700
O42         O  0.66971503  0.86472745  0.26018060    -0.93000
O43         O  0.66111626  0.83246466  0.23685287    -0.91800
C44         C  0.68097320  0.87638828  0.14641233     1.17200
H45         H  0.64082228  0.89420992  0.25678874     0.33200
H46         H  0.63057336  0.83115783  0.19221506     0.44000
H47         H  0.64114902  0.89234377  0.11608318     0.37600
H48         H  0.57900153  0.88261081  0.18335612     0.34000
H49         H  0.63836265  0.83049784  0.29165026     0.25800
H50         H  0.56478864  0.83364938  0.16285533     0.31800
H51         H  0.56702690  0.88440827  0.12718540     0.37700
H52         H  0.67097052  0.85845081  0.28195135     0.32100
H53         H  0.67736888  0.91823160  0.21314176     0.31000
H54         H  0.66388870  0.93044786  0.15779225     0.32700
H55         H  0.62255400  0.91390551  0.08678963     0.31700
H56         H  0.66642131  0.83350520  0.21405471     0.35700
H57         H  0.66278691  0.82670723  0.12864227     0.28400
H58         H  0.58066667  0.90841042  0.28314761     0.32600
H59         H  0.57950331  0.91925376  0.11735748     0.35500
H60         H  0.66396595  0.91662745  0.24319548     0.28100
H61         H  0.65610716  0.83228359  0.09259762     0.40900
H62         H  0.58928267  0.82872549  0.24767877     0.31000
H63         H  0.61874882  0.83488067  0.28241513     0.38600
H64         H  0.62148286  0.92453730  0.12065862     0.30500
H65         H  0.56443110  0.85356461  0.15201254     0.30500
H66         H  0.57543546  0.91596986  0.24756999     0.30800
Zr67       Zr  0.60475998  0.89285903  0.73514402     2.17500
O68         O  0.58432741  0.91410048  0.76047774    -0.51600
O69         O  0.61144715  0.88737957  0.79463349    -0.74800
O70         O  0.57460385  0.88121172  0.74270934    -0.81500
O71         O  0.63832794  0.92965891  0.71371922    -0.83300
O72         O  0.57197616  0.85474333  0.71617299    -0.78900
O73         O  0.61140750  0.92462419  0.73778006    -0.90600
O74         O  0.63276521  0.86641327  0.79751456    -0.76500
O75         O  0.61097174  0.86200017  0.73883660    -0.86000
O76         O  0.63615167  0.89021132  0.73865545    -0.85700
O77         O  0.59305635  0.88019671  0.68397627    -0.72400
O78         O  0.61656240  0.90571423  0.68447201    -0.84600
Zr79       Zr  0.64251668  0.85816878  0.63978642     2.26400
Zr80       Zr  0.59980670  0.84924976  0.68772577     2.06300
Zr81       Zr  0.64793030  0.90224491  0.68744787     2.10000
Zr82       Zr  0.64236802  0.85946099  0.74125152     1.78800
O83         O  0.65368182  0.92572382  0.64686442    -0.93400
O84         O  0.63712420  0.83122389  0.76917701    -0.41200
O85         O  0.65437257  0.87129775  0.69032697    -0.77800
O86         O  0.63120079  0.84562316  0.69145964    -0.96500
O87         O  0.61124009  0.86147046  0.63638576    -0.89800
O88         O  0.63691254  0.88924030  0.63648483    -0.92700
C89         C  0.62173876  0.87706213  0.81117678     1.01100
C90         C  0.62440087  0.93480623  0.72954718     1.14000
C91         C  0.56564387  0.86744527  0.73390598     1.04800
O92         O  0.59489913  0.82485016  0.72669459    -0.94800
O93         O  0.60819324  0.82199978  0.65980772    -0.90600
O94         O  0.63452789  0.82654352  0.63327077    -0.83700
C95         C  0.62158218  0.81652136  0.64277144     1.11400
O96         O  0.58031300  0.91242217  0.63734360    -0.96800
Zr97       Zr  0.60559299  0.89246601  0.63391810     1.88900
O98         O  0.63725778  0.86599971  0.58044350    -0.73400
O99         O  0.57625416  0.84098761  0.64890775    -0.52700
O100        O  0.57970696  0.88056560  0.60512545    -0.97400
O101        O  0.61236328  0.92170624  0.61138139    -0.54600
O102        O  0.61546797  0.88652924  0.57730934    -0.74000
C103        C  0.62716759  0.87655562  0.56383187     0.98400
O104        O  0.66231960  0.83749662  0.61111654    -0.62800
O105        O  0.67148530  0.91142360  0.72563257    -0.57600
O106        O  0.67367163  0.86753780  0.64023942    -0.94300
O107        O  0.67654591  0.89474470  0.66369993    -0.92700
O108        O  0.66858054  0.87210696  0.76760565    -0.93000
O109        O  0.66719013  0.83901429  0.73835841    -0.91800
C110        C  0.68298775  0.88110667  0.64884748     1.17200
H111        H  0.64066950  0.89642949  0.75812998     0.33200
H112        H  0.63440862  0.83334871  0.69386114     0.44000
H113        H  0.64282400  0.89449063  0.61730528     0.37600
H114        H  0.58050342  0.88216511  0.68185534     0.34000
H115        H  0.64376907  0.83200525  0.79063457     0.25800
H116        H  0.56986596  0.83125324  0.66041016     0.31800
H117        H  0.58002463  0.88585661  0.58229070     0.37700
H118        H  0.66976865  0.86567476  0.78922707     0.32100
H119        H  0.67607461  0.92258827  0.71590282     0.31000
H120        H  0.66314073  0.93295676  0.65728574     0.32700
H121        H  0.61192742  0.92972395  0.63116220     0.31700
H122        H  0.66883157  0.83670022  0.71394234     0.35700
H123        H  0.66874910  0.84450111  0.59387397     0.28400
H124        H  0.57926511  0.90820965  0.78062263     0.32600
H125        H  0.57772836  0.91589974  0.61378868     0.35500
H126        H  0.66552802  0.91509579  0.74678827     0.28100
H127        H  0.67138013  0.83418792  0.62794981     0.40900
H128        H  0.60646691  0.81878114  0.72815573     0.31000
H129        H  0.62454079  0.83162490  0.77614865     0.38600
H130        H  0.62505842  0.92123366  0.60531089     0.30500
H131        H  0.56789687  0.85105670  0.64937473     0.30500
H132        H  0.57436300  0.91519358  0.74443884     0.30800
Zr133      Zr  0.85352288  0.86012144  0.11743080     2.17500
O134        O  0.83055891  0.84450571  0.14909437    -0.51600
O135        O  0.85945159  0.86820110  0.17627445    -0.74800
O136        O  0.86109183  0.82892611  0.12664767    -0.81500
O137        O  0.81853011  0.89364584  0.08636309    -0.83300
O138        O  0.88823558  0.82383784  0.10376080    -0.78900
O139        O  0.82216235  0.86801636  0.11511385    -0.90600
O140        O  0.88143870  0.88853073  0.17843502    -0.76500
O141        O  0.88472464  0.86413515  0.12204919    -0.86000
O142        O  0.85843557  0.89131445  0.11821265    -0.85700
O143        O  0.86573227  0.84594601  0.06790082    -0.72400
O144        O  0.84221651  0.87112674  0.06501980    -0.84600
Zr145      Zr  0.89163880  0.89273133  0.02099103     2.26400
Zr146      Zr  0.89708686  0.85035915  0.07275261     2.06300
Zr147      Zr  0.84757609  0.90226634  0.06550558     2.10000
Zr148      Zr  0.88965487  0.89530771  0.12148572     1.78800
O149        O  0.82522835  0.91116977  0.02481841    -0.93400
O150        O  0.91726588  0.88791668  0.14969078    -0.41200
O151        O  0.87881305  0.90673326  0.06952914    -0.77800
O152        O  0.90311327  0.88163921  0.07364903    -0.96500
O153        O  0.88638567  0.86160597  0.02004157    -0.89800
O154        O  0.86038617  0.88902305  0.01616806    -0.92700
C155        C  0.87008402  0.87838425  0.19251184     1.01100
C156        C  0.81245839  0.88055927  0.10347514     1.14000
C157        C  0.87432753  0.81881077  0.11996469     1.04800
O158        O  0.92047790  0.84321402  0.11257983    -0.94800
O159        O  0.92523968  0.85581810  0.04452769    -0.90600
O160        O  0.92211881  0.88172463  0.01609895    -0.83700
C161        C  0.93132786  0.86841439  0.02606916     1.11400
O162        O  0.83240021  0.83507809  0.01864053    -0.96800
Zr163      Zr  0.85518569  0.85794365  0.01606038     1.88900
O164        O  0.88514923  0.88616569  0.96185397    -0.73400
O165        O  0.90361327  0.82557369  0.03544538    -0.52700
O166        O  0.86388568  0.82948563  0.99221750    -0.97400
O167        O  0.82778320  0.86792189  0.98999016    -0.54600
O168        O  0.86478385  0.86410541  0.95929487    -0.74000
C169        C  0.87540333  0.87516153  0.94555952     0.98400
O170        O  0.91177321  0.91316370  0.99249190    -0.62800
O171        O  0.84004644  0.92612789  0.10444920    -0.57600
O172        O  0.88494772  0.92448991  0.01743480    -0.94300
O173        O  0.85743713  0.92937997  0.03871440    -0.92700
O174        O  0.88020364  0.92352930  0.14509444    -0.93000
O175        O  0.91228187  0.91815352  0.11643155    -0.91800
C176        C  0.87175828  0.93466578  0.02437000     1.17200
H177        H  0.85241634  0.89680001  0.13704349     0.33200
H178        H  0.91558237  0.88399618  0.07618438     0.44000
H179        H  0.85591367  0.89465949  0.99608056     0.37600
H180        H  0.86269486  0.83357266  0.06642895     0.34000
H181        H  0.91726545  0.89515966  0.17054603     0.25800
H182        H  0.91100435  0.81753898  0.04914767     0.31800
H183        H  0.85964506  0.82966102  0.96860161     0.37700
H184        H  0.87602474  0.93041423  0.12544664     0.32100
H185        H  0.83207537  0.93393509  0.09147598     0.31000
H186        H  0.81890863  0.92110464  0.03580708     0.32700
H187        H  0.83141995  0.87678590  0.97295261     0.31700
H188        H  0.91471833  0.91892500  0.09190684     0.35700
H189        H  0.92191150  0.91489051  0.00794410     0.28400
H190        H  0.83665831  0.83842318  0.16780306     0.32600
H191        H  0.82830139  0.83342661  0.99512546     0.35500
H192        H  0.83231571  0.92068605  0.12177962     0.28100
H193        H  0.91664101  0.90659193  0.97292782     0.40900
H194        H  0.91476686  0.84380628  0.13507819     0.31000
H195        H  0.91556861  0.87563572  0.15771909     0.38600
H196        H  0.82171593  0.87488646  0.00775394     0.30500
H197        H  0.89220251  0.81926079  0.03297123     0.30500
H198        H  0.82644832  0.83486419  0.13407863     0.30800
Zr199      Zr  0.85664745  0.85818559  0.61600117     2.17500
O200        O  0.83523211  0.83949144  0.64540681    -0.51600
O201        O  0.86360843  0.86354685  0.67524697    -0.74800
O202        O  0.86551582  0.82680743  0.61810111    -0.81500
O203        O  0.82113981  0.89317225  0.59615648    -0.83300
O204        O  0.89112752  0.82331293  0.58872546    -0.78900
O205        O  0.82521507  0.86603090  0.61948856    -0.90600
O206        O  0.88790872  0.88114808  0.67893438    -0.76500
O207        O  0.88804709  0.86142090  0.61605411    -0.86000
O208        O  0.86238453  0.88903870  0.62404062    -0.85700
O209        O  0.86631238  0.84728015  0.56177902    -0.72400
O210        O  0.84350452  0.87314903  0.56904946    -0.84600
Zr211      Zr  0.89120887  0.89634238  0.52222238     2.26400
Zr212      Zr  0.89783711  0.85119905  0.56171500     2.06300
Zr213      Zr  0.84976766  0.90383271  0.57653960     2.10000
Zr214      Zr  0.89370227  0.89226246  0.62303761     1.78800
O215        O  0.82583516  0.91810719  0.54599332    -0.93400
O216        O  0.92240214  0.88259934  0.64379070    -0.41200
O217        O  0.88125717  0.90755940  0.57594139    -0.77800
O218        O  0.90443272  0.88190426  0.56997824    -0.96500
O219        O  0.88495416  0.86572209  0.51425565    -0.89800
O220        O  0.85971736  0.89362340  0.52239099    -0.92700
C221        C  0.87572347  0.87157215  0.69197662     1.01100
C222        C  0.81539097  0.87917995  0.61100061     1.14000
C223        C  0.87834760  0.81728025  0.60672215     1.04800
O224        O  0.92347532  0.84024417  0.59219230    -0.94800
O225        O  0.92470148  0.85884476  0.53078519    -0.90600
O226        O  0.92131366  0.88637432  0.50900613    -0.83700
C227        C  0.93056571  0.87240041  0.51468928     1.11400
O228        O  0.82872351  0.84237490  0.52007403    -0.96800
Zr229      Zr  0.85354618  0.86290750  0.51557933     1.88900
O230        O  0.88334018  0.89225358  0.46303962    -0.73400
O231        O  0.89988388  0.82851065  0.51814579    -0.52700
O232        O  0.85914248  0.83527764  0.48564801    -0.97400
O233        O  0.82610995  0.87477198  0.49265672    -0.54600
O234        O  0.86148167  0.87172254  0.45944535    -0.74000
C235        C  0.87254623  0.88251029  0.44626671     0.98400
O236        O  0.91461260  0.91591646  0.50168076    -0.62800
O237        O  0.84486667  0.92351824  0.62451781    -0.57600
O238        O  0.88243207  0.92741210  0.51896670    -0.94300
O239        O  0.85866082  0.93209915  0.55316773    -0.92700
O240        O  0.88552254  0.91851090  0.65520934    -0.93000
O241        O  0.91646277  0.91509928  0.62035353    -0.91800
C242        C  0.87079435  0.93743592  0.53288312     1.17200
H243        H  0.85728807  0.89332272  0.64488686     0.33200
H244        H  0.91702836  0.88391410  0.57080291     0.44000
H245        H  0.85454005  0.90060246  0.50458670     0.37600
H246        H  0.86308363  0.83505724  0.55836758     0.34000
H247        H  0.92336648  0.88782230  0.66665252     0.25800
H248        H  0.90892393  0.82016144  0.52657502     0.31800
H249        H  0.87014888  0.83741702  0.47265512     0.37700
H250        H  0.89317794  0.91821965  0.67543475     0.32100
H251        H  0.84185663  0.93508433  0.61438603     0.31000
H252        H  0.82069148  0.92661227  0.56232429     0.32700
H253        H  0.82964603  0.88512320  0.47892104     0.31700
H254        H  0.91941185  0.91607341  0.59605749     0.35700
H255        H  0.90969701  0.92198229  0.48167074     0.28400
H256        H  0.84158618  0.83453266  0.66501722     0.32600
H257        H  0.82500758  0.83987907  0.49659282     0.35500
H258        H  0.83366692  0.91940242  0.63491488     0.28100
H259        H  0.91601202  0.92526405  0.51902535     0.40900
H260        H  0.93032867  0.85098155  0.59808557     0.31000
H261        H  0.92095856  0.86975733  0.64782851     0.38600
H262        H  0.81988639  0.87990730  0.51239553     0.30500
H263        H  0.88861802  0.82185777  0.51975697     0.30500
H264        H  0.83287542  0.82927401  0.63038117     0.30800
Zr265      Zr  0.85805346  0.14333952  0.39333913     2.17500
O266        O  0.83398647  0.16108333  0.37034210    -0.51600
O267        O  0.86489485  0.13769696  0.33396550    -0.74800
O268        O  0.86621125  0.17430288  0.38409510    -0.81500
O269        O  0.82482388  0.10605978  0.41470731    -0.83300
O270        O  0.89290319  0.17942376  0.40835943    -0.78900
O271        O  0.82740209  0.13286982  0.38934940    -0.90600
O272        O  0.89035384  0.12187083  0.33088604    -0.76500
O273        O  0.88940974  0.14065352  0.38927156    -0.86000
O274        O  0.86419466  0.11253640  0.38881241    -0.85700
O275        O  0.86949071  0.15658439  0.44426078    -0.72400
O276        O  0.84654953  0.13034340  0.44408059    -0.84600
Zr277      Zr  0.89650795  0.10976245  0.48743917     2.26400
Zr278      Zr  0.90103554  0.15324682  0.44009447     2.06300
Zr279      Zr  0.85340296  0.09959662  0.43989399     2.10000
Zr280      Zr  0.89549476  0.10980693  0.38618357     1.78800
O281        O  0.82964752  0.08933372  0.47665260    -0.93400
O282        O  0.92501550  0.11634354  0.36461981    -0.41200
O283        O  0.88490142  0.09637865  0.43694918    -0.77800
O284        O  0.90792968  0.12236383  0.43601406    -0.96500
O285        O  0.89007206  0.14054819  0.49144064    -0.89800
O286        O  0.86501167  0.11200367  0.49097769    -0.92700
C287        C  0.87777777  0.13068271  0.31751147     1.01100
C288        C  0.81839910  0.11913054  0.39813856     1.14000
C289        C  0.87944750  0.18435476  0.39112705     1.04800
O290        O  0.92576900  0.16128202  0.40366399    -0.94800
O291        O  0.92911351  0.14769035  0.46809114    -0.90600
O292        O  0.92667527  0.12123715  0.49496900    -0.83700
C293        C  0.93554149  0.13497636  0.48572161     1.11400
O294        O  0.83631559  0.16599253  0.49174457    -0.96800
Zr295      Zr  0.85865351  0.14277972  0.49449828     1.88900
O296        O  0.88920055  0.11442642  0.54690318    -0.73400
O297        O  0.90480534  0.17831967  0.47812933    -0.52700
O298        O  0.86832829  0.16886171  0.52572646    -0.97400
O299        O  0.82984771  0.13399562  0.51671896    -0.54600
O300        O  0.86530472  0.13246965  0.55053375    -0.74000
C301        C  0.87714266  0.12258476  0.56365747     0.98400
O302        O  0.92043878  0.09285258  0.51300213    -0.62800
O303        O  0.84947724  0.07546268  0.39966171    -0.57600
O304        O  0.88987773  0.07801990  0.49144134    -0.94300
O305        O  0.86281438  0.07307825  0.46837371    -0.92700
O306        O  0.88466280  0.08427647  0.35481514    -0.93000
O307        O  0.91572561  0.08478594  0.38731420    -0.91800
C308        C  0.87668971  0.06795169  0.48404778     1.17200
H309        H  0.85853458  0.10752507  0.36917168     0.33200
H310        H  0.92049732  0.12047227  0.43379157     0.44000
H311        H  0.86037493  0.10553522  0.51007251     0.37600
H312        H  0.86626687  0.16890524  0.44599686     0.34000
H313        H  0.92522635  0.11123132  0.34159183     0.25800
H314        H  0.91237382  0.18673919  0.46549398     0.31800
H315        H  0.86298595  0.16761584  0.54845307     0.37700
H316        H  0.89042259  0.08516414  0.33240048     0.32100
H317        H  0.84087849  0.06739300  0.41061323     0.31000
H318        H  0.82486690  0.07867803  0.46528272     0.32700
H319        H  0.82953494  0.13867599  0.54006282     0.31700
H320        H  0.91716793  0.08205207  0.41158146     0.35700
H321        H  0.91503992  0.08625204  0.53199949     0.28400
H322        H  0.83861347  0.16626627  0.34913139     0.32600
H323        H  0.83380601  0.16943683  0.51540388     0.35500
H324        H  0.84290705  0.08060008  0.38048668     0.28100
H325        H  0.92376124  0.08374795  0.49616823     0.40900
H326        H  0.92098500  0.16062983  0.38045995     0.31000
H327        H  0.92505752  0.12929099  0.36098198     0.38600
H328        H  0.83057952  0.12100071  0.51937910     0.30500
H329        H  0.89304874  0.18406299  0.47895882     0.30500
H330        H  0.83250295  0.17121533  0.38597530     0.30800
Zr331      Zr  0.89321615  0.10775262  0.98724039     2.17500
O332        O  0.91193407  0.08576741  0.01459591    -0.51600
O333        O  0.88890988  0.11553527  0.04678175    -0.74800
O334        O  0.92475900  0.11603935  0.98907029    -0.81500
O335        O  0.85857863  0.07208899  0.96327204    -0.83300
O336        O  0.92895916  0.14162871  0.95997998    -0.78900
O337        O  0.88480871  0.07634307  0.99022475    -0.90600
O338        O  0.86833232  0.13712013  0.05025702    -0.76500
O339        O  0.88894873  0.13899408  0.99014025    -0.86000
O340        O  0.86199728  0.11225243  0.99295645    -0.85700
O341        O  0.90462752  0.11889710  0.93439888    -0.72400
O342        O  0.87955393  0.09511003  0.93813948    -0.84600
Zr343      Zr  0.85629169  0.14342365  0.89258352     2.26400
Zr344      Zr  0.90017203  0.15028418  0.93769940     2.06300
Zr345      Zr  0.84856505  0.10059019  0.94285005     2.10000
Zr346      Zr  0.85777282  0.14337611  0.99444821     1.78800
O347        O  0.83794129  0.07795487  0.90403234    -0.93400
O348        O  0.86515091  0.17222858  0.01817246    -0.41200
O349        O  0.84420240  0.13194113  0.94455449    -0.77800
O350        O  0.86902671  0.15562240  0.94338643    -0.96500
O351        O  0.88719362  0.13794953  0.88782909    -0.89800
O352        O  0.85958088  0.11202488  0.89047624    -0.92700
C353        C  0.87943224  0.12653594  0.06368901     1.01100
C354        C  0.87212473  0.06642296  0.97945135     1.14000
C355        C  0.93472240  0.12835763  0.97698739     1.04800
O356        O  0.90923971  0.17368566  0.97635758    -0.94800
O357        O  0.89213805  0.17814700  0.91164004    -0.90600
O358        O  0.86544274  0.17463974  0.88619815    -0.83700
C359        C  0.87879832  0.18417312  0.89526952     1.11400
O360        O  0.91541382  0.08618702  0.89007000    -0.96800
Zr361      Zr  0.89052164  0.10658596  0.88632414     1.88900
O362        O  0.86226242  0.13560708  0.83305377    -0.73400
O363        O  0.92050915  0.15920705  0.89316018    -0.52700
O364        O  0.91576454  0.11535097  0.85166945    -0.97400
O365        O  0.88133200  0.07708577  0.86868554    -0.54600
O366        O  0.88010574  0.11153081  0.83038890    -0.74000
C367        C  0.87058487  0.12340056  0.81669468     0.98400
O368        O  0.83765652  0.16543059  0.86512852    -0.62800
O369        O  0.82706502  0.09232577  0.98603279    -0.57600
O370        O  0.82476259  0.13535291  0.89149161    -0.94300
O371        O  0.82016698  0.11010232  0.92138338    -0.92700
O372        O  0.83102651  0.13280908  0.02240495    -0.93000
O373        O  0.83425630  0.16536052  0.99518626    -0.91800
C374        C  0.81468645  0.12314862  0.90359803     1.17200
H375        H  0.85740239  0.10655377  0.01296200     0.33200
H376        H  0.86644141  0.16803056  0.94599979     0.44000
H377        H  0.85306890  0.10697741  0.87183909     0.37600
H378        H  0.91679506  0.11574983  0.93033203     0.34000
H379        H  0.86074566  0.17186588  0.04172776     0.25800
H380        H  0.93115459  0.16361722  0.90500282     0.31800
H381        H  0.91170622  0.12572024  0.83859462     0.37700
H382        H  0.83172941  0.13763779  0.04561171     0.32100
H383        H  0.81904749  0.10262233  0.98795927     0.31000
H384        H  0.82710501  0.07317319  0.91478636     0.32700
H385        H  0.88734512  0.07508560  0.84678276     0.31700
H386        H  0.83287256  0.16883342  0.97125910     0.35700
H387        H  0.83183414  0.15920972  0.84615362     0.28400
H388        H  0.91831433  0.09212305  0.03275365     0.32600
H389        H  0.91737710  0.08164652  0.86690381     0.35500
H390        H  0.81975722  0.08297725  0.97541220     0.28100
H391        H  0.82803271  0.16823670  0.88128764     0.40900
H392        H  0.91278864  0.16749865  0.99726423     0.31000
H393        H  0.87819559  0.17212695  0.02032740     0.38600
H394        H  0.86867525  0.07826672  0.86281773     0.30500
H395        H  0.92419158  0.14803076  0.88221831     0.30500
H396        H  0.92115463  0.08260761  0.99782636     0.30800
Zr397      Zr  0.64524210  0.14033909  0.36814031     2.17500
O398        O  0.66769355  0.15682812  0.39930074    -0.51600
O399        O  0.63825089  0.13306297  0.42720377    -0.74800
O400        O  0.63813115  0.17208560  0.37503910    -0.81500
O401        O  0.67936861  0.10528831  0.33988463    -0.83300
O402        O  0.61174236  0.17744888  0.34982878    -0.78900
O403        O  0.67627219  0.13100899  0.36911928    -0.90600
O404        O  0.61774448  0.11115570  0.42930157    -0.76500
O405        O  0.61400474  0.13702619  0.37240712    -0.86000
O406        O  0.63941615  0.10924095  0.36979659    -0.85700
O407        O  0.63389057  0.15390750  0.31751794    -0.72400
O408        O  0.65668532  0.12813423  0.31625048    -0.84600
Zr409      Zr  0.60661319  0.10778690  0.27194782     2.26400
Zr410      Zr  0.60236925  0.15039728  0.32254524     2.06300
Zr411      Zr  0.65024380  0.09716866  0.31773761     2.10000
Zr412      Zr  0.60807860  0.10604168  0.37269974     1.78800
O413        O  0.67246542  0.08696885  0.27759568    -0.93400
O414        O  0.58257718  0.11569080  0.40575846    -0.41200
O415        O  0.61879833  0.09385120  0.32109782    -0.77800
O416        O  0.59524807  0.11948721  0.32433735    -0.96500
O417        O  0.61312063  0.13860167  0.27015039    -0.89800
O418        O  0.63809648  0.11015394  0.26765775    -0.92700
C419        C  0.62847872  0.12191880  0.44330571     1.01100
C420        C  0.68564178  0.11810328  0.35772897     1.14000
C421        C  0.62538393  0.18245285  0.36647797     1.04800
O422        O  0.58132214  0.15635755  0.36782966    -0.94800
O423        O  0.57406180  0.14550480  0.29530280    -0.90600
O424        O  0.57619597  0.11929113  0.26750707    -0.83700
C425        C  0.56736315  0.13282546  0.27791025     1.11400
O426        O  0.67089971  0.15952646  0.26837288    -0.96800
Zr427      Zr  0.64447241  0.14097502  0.26636214     1.88900
O428        O  0.61277691  0.11473175  0.21279154    -0.73400
O429        O  0.59364273  0.17532454  0.28749598    -0.52700
O430        O  0.63891602  0.17104362  0.24701431    -0.97400
O431        O  0.66910053  0.12886943  0.23374296    -0.54600
O432        O  0.63240427  0.13743314  0.21055440    -0.74000
C433        C  0.62171908  0.12649456  0.19672775     0.98400
O434        O  0.58639766  0.08792524  0.24237158    -0.62800
O435        O  0.65670564  0.07338925  0.35732734    -0.57600
O436        O  0.61234949  0.07588819  0.26840919    -0.94300
O437        O  0.63912704  0.07007932  0.29181545    -0.92700
O438        O  0.61524499  0.07625972  0.39146787    -0.93000
O439        O  0.58229172  0.08681437  0.36786202    -0.91800
C440        C  0.62494838  0.06525138  0.27638475     1.17200
H441        H  0.64520365  0.10374807  0.38877312     0.33200
H442        H  0.58272485  0.11750403  0.32716103     0.44000
H443        H  0.64238256  0.10414632  0.24771182     0.37600
H444        H  0.63735433  0.16614007  0.31539012     0.34000
H445        H  0.58185317  0.10729746  0.42488198     0.25800
H446        H  0.58649728  0.18299204  0.30254283     0.31800
H447        H  0.64318296  0.17129654  0.22337053     0.37700
H448        H  0.60688135  0.07385434  0.41019531     0.32100
H449        H  0.66433019  0.06511193  0.34450179     0.31000
H450        H  0.67806707  0.07668568  0.28867978     0.32700
H451        H  0.66368785  0.12262012  0.21436179     0.31700
H452        H  0.58331706  0.08151054  0.34506728     0.35700
H453        H  0.57604043  0.08638441  0.25747096     0.28400
H454        H  0.66138423  0.16337314  0.41734340     0.32600
H455        H  0.67353655  0.16276243  0.24467008     0.35500
H456        H  0.66468142  0.07867241  0.37438117     0.28100
H457        H  0.58189812  0.09470793  0.22285573     0.40900
H458        H  0.58848564  0.16026098  0.38736502     0.31000
H459        H  0.58624612  0.12702606  0.41620004     0.38600
H460        H  0.67398048  0.11933830  0.24802494     0.30500
H461        H  0.60470353  0.18205435  0.28348864     0.30500
H462        H  0.67216572  0.16599120  0.38363694     0.30800
Zr463      Zr  0.60770377  0.10691038  0.77335807     2.17500
O464        O  0.58814441  0.08329326  0.75385442    -0.51600
O465        O  0.61460901  0.11136935  0.71367320    -0.74800
O466        O  0.57729818  0.11685867  0.76199400    -0.81500
O467        O  0.63988424  0.07111771  0.80583878    -0.83300
O468        O  0.57367989  0.14460554  0.78291598    -0.78900
O469        O  0.61618070  0.07568439  0.77168964    -0.90600
O470        O  0.63797324  0.13021087  0.70943455    -0.76500
O471        O  0.61414332  0.13743735  0.76460349    -0.86000
O472        O  0.63920317  0.10955301  0.77264208    -0.85700
O473        O  0.59441293  0.12167502  0.82096572    -0.72400
O474        O  0.61797691  0.09655310  0.82715212    -0.84600
Zr475      Zr  0.64228778  0.14594155  0.86605049     2.26400
Zr476      Zr  0.60106426  0.15237642  0.81187568     2.06300
Zr477      Zr  0.64942087  0.09998355  0.82675631     2.10000
Zr478      Zr  0.64559686  0.14008735  0.76535954     1.78800
O479        O  0.65541468  0.07882852  0.87153543    -0.93400
O480        O  0.64140141  0.16734823  0.73368991    -0.41200
O481        O  0.65594179  0.13076145  0.81928832    -0.77800
O482        O  0.63262963  0.15603715  0.81138252    -0.96500
O483        O  0.61093987  0.14272592  0.86633441    -0.89800
O484        O  0.63670353  0.11513908  0.87411135    -0.92700
C485        C  0.62622448  0.12003303  0.69664260     1.01100
C486        C  0.62765328  0.06560710  0.78589057     1.14000
C487        C  0.56788862  0.13076420  0.76761544     1.04800
O488        O  0.59744381  0.17373462  0.76651220    -0.94800
O489        O  0.60829594  0.18065398  0.83783236    -0.90600
O490        O  0.63300446  0.17699130  0.86959872    -0.83700
C491        C  0.62061270  0.18660249  0.85705992     1.11400
O492        O  0.58119887  0.09060946  0.87273678    -0.96800
Zr493      Zr  0.60538201  0.11199079  0.87403659     1.88900
O494        O  0.63572000  0.14099880  0.92611540    -0.73400
O495        O  0.57615186  0.16367109  0.84448587    -0.52700
O496        O  0.57821307  0.12532524  0.89538080    -0.97400
O497        O  0.61133149  0.08459145  0.90433665    -0.54600
O498        O  0.61295313  0.12151969  0.93000976    -0.74000
C499        C  0.62451523  0.13176117  0.94316864     0.98400
O500        O  0.66123696  0.16971969  0.88708011    -0.62800
O501        O  0.67380422  0.08917238  0.79195938    -0.57600
O502        O  0.67305561  0.13693718  0.87444381    -0.94300
O503        O  0.67697575  0.10949692  0.85254710    -0.92700
O504        O  0.67259511  0.12626389  0.74446036    -0.93000
O505        O  0.67056774  0.16050950  0.76671057    -0.91800
C506        C  0.68268264  0.12332659  0.86792506     1.17200
H507        H  0.64425615  0.10250526  0.75469290     0.33200
H508        H  0.63581654  0.16827050  0.80789626     0.44000
H509        H  0.64194564  0.11090323  0.89476568     0.37600
H510        H  0.58184708  0.11958653  0.82246685     0.34000
H511        H  0.64751577  0.16531264  0.71188682     0.25800
H512        H  0.56932826  0.17097516  0.82841857     0.31800
H513        H  0.57798200  0.12254103  0.91978278     0.37700
H514        H  0.67542214  0.13265025  0.72331788     0.32100
H515        H  0.67883944  0.07920889  0.80493291     0.31000
H516        H  0.66279571  0.06958786  0.86076233     0.32700
H517        H  0.60730430  0.08678764  0.92777480     0.31700
H518        H  0.67397096  0.16109371  0.79079955     0.35700
H519        H  0.66675928  0.16514679  0.90794297     0.28400
H520        H  0.58299470  0.08747805  0.73235245     0.32600
H521        H  0.57650957  0.09013007  0.89608568     0.35500
H522        H  0.66821893  0.08349476  0.77212951     0.28100
H523        H  0.67104497  0.17080245  0.87056923     0.40900
H524        H  0.59517692  0.16656900  0.74602720     0.31000
H525        H  0.62867503  0.16739855  0.72788984     0.38600
H526        H  0.62436983  0.08390435  0.90598040     0.30500
H527        H  0.56856182  0.15322043  0.84880169     0.30500
H528        H  0.57814652  0.08300667  0.77006317     0.30800
Zr529      Zr  0.14445923  0.85732218  0.11346679     2.17500
O530        O  0.16357941  0.83615488  0.14211885    -0.51600
O531        O  0.13971564  0.86470892  0.17320914    -0.74800
O532        O  0.17566394  0.86658213  0.11502018    -0.81500
O533        O  0.10922746  0.82208952  0.09422332    -0.83300
O534        O  0.17865902  0.89379291  0.09131908    -0.78900
O535        O  0.13690737  0.82573553  0.11546633    -0.90600
O536        O  0.12013897  0.88727510  0.17668528    -0.76500
O537        O  0.14008303  0.88850517  0.11598419    -0.86000
O538        O  0.11327493  0.86176254  0.11963393    -0.85700
O539        O  0.15584184  0.86847778  0.06061338    -0.72400
O540        O  0.13063174  0.84446782  0.06466314    -0.84600
Zr541      Zr  0.10649631  0.89238937  0.01981090     2.26400
Zr542      Zr  0.15088869  0.89979998  0.06327308     2.06300
Zr543      Zr  0.09963711  0.84981529  0.07010867     2.10000
Zr544      Zr  0.10894887  0.89285827  0.12105557     1.78800
O545        O  0.08902348  0.82562738  0.03480631    -0.93400
O546        O  0.11711620  0.92193201  0.14263534    -0.41200
O547        O  0.09473867  0.88102001  0.07205851    -0.77800
O548        O  0.11980355  0.90499577  0.06964772    -0.96500
O549        O  0.13749530  0.88730555  0.01402302    -0.89800
O550        O  0.11044173  0.86107351  0.01747829    -0.92700
C551        C  0.13079257  0.87621526  0.19005462     1.01100
C552        C  0.12334873  0.81615409  0.10806282     1.14000
C553        C  0.18488761  0.88021467  0.10648640     1.04800
O554        O  0.15833766  0.92569785  0.09705903    -0.94800
O555        O  0.14366692  0.92682530  0.03359063    -0.90600
O556        O  0.11594249  0.92334100  0.01235573    -0.83700
C557        C  0.12985985  0.93268389  0.01858574     1.11400
O558        O  0.16170132  0.83106499  0.01751889    -0.96800
Zr559      Zr  0.14143522  0.85602064  0.01269291     1.88900
O560        O  0.11197854  0.88505521  0.96021478    -0.73400
O561        O  0.17423487  0.90445116  0.02168389    -0.52700
O562        O  0.16998357  0.86228415  0.98651320    -0.97400
O563        O  0.12976172  0.82949571  0.98548223    -0.54600
O564        O  0.13491379  0.86578246  0.95661792    -0.74000
C565        C  0.12339425  0.87595325  0.94339903     0.98400
O566        O  0.08877370  0.91587051  0.99499318    -0.62800
O567        O  0.07765315  0.84356463  0.11360757    -0.57600
O568        O  0.07485835  0.88380706  0.01741726    -0.94300
O569        O  0.07160056  0.85778473  0.04505364    -0.92700
O570        O  0.08345558  0.88330604  0.15412345    -0.93000
O571        O  0.08436565  0.91357480  0.11857691    -0.91800
C572        C  0.06532177  0.87073775  0.02797368     1.17200
H573        H  0.10879898  0.85611825  0.13979714     0.33200
H574        H  0.11738511  0.91746749  0.07182162     0.44000
H575        H  0.10398143  0.85598834  0.99881812     0.37600
H576        H  0.16816772  0.86576934  0.05698539     0.34000
H577        H  0.11103264  0.92283578  0.16474307     0.25800
H578        H  0.18194450  0.91364320  0.03176784     0.31800
H579        H  0.17021961  0.85498569  0.96574220     0.37700
H580        H  0.08383894  0.89061985  0.17487478     0.32100
H581        H  0.07048696  0.85448726  0.11515909     0.31000
H582        H  0.07978490  0.81969817  0.04851103     0.32700
H583        H  0.12133698  0.83373553  0.96823187     0.31700
H584        H  0.08375315  0.91710366  0.09455391     0.35700
H585        H  0.08453379  0.91101055  0.97326771     0.28400
H586        H  0.16939924  0.84283893  0.16053016     0.32600
H587        H  0.16380697  0.82680357  0.99420415     0.35500
H588        H  0.06961825  0.83473982  0.10327282     0.28100
H589        H  0.07811849  0.91706396  0.00941118     0.40900
H590        H  0.15985746  0.92113545  0.12026867     0.31000
H591        H  0.12980160  0.92089353  0.14840700     0.38600
H592        H  0.12223491  0.82384476  0.00290216     0.30500
H593        H  0.18140956  0.89351286  0.02229599     0.30500
H594        H  0.17319155  0.83334722  0.12592967     0.30800
Zr595      Zr  0.10476869  0.89427163  0.51910183     2.17500
O596        O  0.08133297  0.91292721  0.49656911    -0.51600
O597        O  0.11212696  0.88995910  0.45934850    -0.74800
O598        O  0.11440940  0.92535318  0.51413642    -0.81500
O599        O  0.06879422  0.86000012  0.54320216    -0.83300
O600        O  0.14162871  0.92805489  0.53776401    -0.78900
O601        O  0.07339466  0.88570872  0.51476618    -0.90600
O602        O  0.13538246  0.87106472  0.45636644    -0.76500
O603        O  0.13586579  0.88922187  0.51468276    -0.86000
O604        O  0.10846195  0.86293098  0.51470253    -0.85700
O605        O  0.11731264  0.90613481  0.57034198    -0.72400
O606        O  0.09251106  0.88166879  0.56961204    -0.84600
Zr607      Zr  0.14074284  0.85728080  0.61248780     2.26400
Zr608      Zr  0.14852845  0.90045495  0.56587685     2.06300
Zr609      Zr  0.09693601  0.85044435  0.56594628     2.10000
Zr610      Zr  0.13948556  0.85801276  0.51112153     1.78800
O611        O  0.07423634  0.84230182  0.60685754    -0.93400
O612        O  0.16948088  0.86256119  0.49006605    -0.41200
O613        O  0.12802705  0.84521600  0.56180163    -0.77800
O614        O  0.15317609  0.86915494  0.56106799    -0.96500
O615        O  0.13650304  0.88839793  0.61686611    -0.89800
O616        O  0.10955973  0.86190118  0.61689036    -0.92700
C617        C  0.12434535  0.88174181  0.44302563     1.01100
C618        C  0.06333327  0.87311014  0.52550660     1.14000
C619        C  0.12818047  0.93447810  0.52233233     1.04800
O620        O  0.17318268  0.90698170  0.52809251    -0.94800
O621        O  0.17587844  0.89313218  0.59493119    -0.90600
O622        O  0.17214019  0.86559870  0.61698422    -0.83700
C623        C  0.18163135  0.87929212  0.61006848     1.11400
O624        O  0.08321563  0.91645939  0.61618854    -0.96800
Zr625      Zr  0.10534894  0.89310730  0.61999453     1.88900
O626        O  0.13463010  0.86410139  0.67204403    -0.73400
O627        O  0.15569809  0.92405718  0.60549948    -0.52700
O628        O  0.11525017  0.92052879  0.64647466    -0.97400
O629        O  0.07703572  0.88474309  0.64502038    -0.54600
O630        O  0.11334346  0.88507014  0.67636992    -0.74000
C631        C  0.12438751  0.87427773  0.68929693     0.98400
O632        O  0.15818014  0.83561512  0.64356634    -0.62800
O633        O  0.08717099  0.82824708  0.52540159    -0.57600
O634        O  0.13307265  0.82577698  0.61211443    -0.94300
O635        O  0.10577674  0.82201258  0.58921787    -0.92700
O636        O  0.12716791  0.83362940  0.47842221    -0.93000
O637        O  0.15813352  0.83178788  0.51018328    -0.91800
C638        C  0.11981958  0.81608317  0.60345343     1.17200
H639        H  0.10234637  0.85833132  0.49517824     0.33200
H640        H  0.16553782  0.86637013  0.55820080     0.44000
H641        H  0.10471017  0.85588970  0.63633263     0.37600
H642        H  0.11491776  0.91856293  0.57330462     0.34000
H643        H  0.16899933  0.85930981  0.46586698     0.25800
H644        H  0.16517542  0.93093412  0.59421406     0.31800
H645        H  0.11061858  0.92006263  0.66986070     0.37700
H646        H  0.13336730  0.83418380  0.45639136     0.32100
H647        H  0.09790466  0.82124504  0.52025638     0.31000
H648        H  0.06777478  0.83236414  0.59617983     0.32700
H649        H  0.07951224  0.87397027  0.65834377     0.31700
H650        H  0.16394085  0.83173494  0.53254768     0.35700
H651        H  0.16817406  0.83239841  0.62854210     0.28400
H652        H  0.08571024  0.91695809  0.47430869     0.32600
H653        H  0.08004592  0.91948005  0.63977380     0.35500
H654        H  0.07952377  0.82012141  0.53854451     0.28100
H655        H  0.16364725  0.84219407  0.66249846     0.40900
H656        H  0.16767039  0.90943502  0.50595620     0.31000
H657        H  0.17111529  0.87555383  0.49015058     0.38600
H658        H  0.06982098  0.88049750  0.62581147     0.30500
H659        H  0.14527749  0.93197050  0.60532679     0.30500
H660        H  0.08100624  0.92366576  0.51090233     0.30800
Zr661      Zr  0.39081089  0.89142296  0.23007649     2.17500
O662        O  0.41375136  0.91172912  0.24964453    -0.51600
O663        O  0.38385907  0.88638401  0.28965651    -0.74800
O664        O  0.38040399  0.92204532  0.23666387    -0.81500
O665        O  0.42614743  0.85628977  0.21203827    -0.83300
O666        O  0.35574501  0.92597751  0.20501766    -0.78900
O667        O  0.42178570  0.88273421  0.23827793    -0.90600
O668        O  0.36090983  0.86725437  0.29193858    -0.76500
O669        O  0.35941457  0.88771944  0.23010065    -0.86000
O670        O  0.38563165  0.86042879  0.23684193    -0.85700
O671        O  0.38104306  0.90265230  0.17629791    -0.72400
O672        O  0.40418973  0.87708562  0.18235386    -0.84600
Zr673      Zr  0.35699759  0.85330472  0.13497212     2.26400
Zr674      Zr  0.34963326  0.89826763  0.17615092     2.06300
Zr675      Zr  0.39839340  0.84623776  0.18859865     2.10000
Zr676      Zr  0.35445142  0.85670679  0.23605502     1.78800
O677        O  0.42274541  0.83507860  0.15431840    -0.93400
O678        O  0.32566479  0.86477128  0.25924130    -0.41200
O679        O  0.36707736  0.84201097  0.18828396    -0.77800
O680        O  0.34371098  0.86731589  0.18357667    -0.96500
O681        O  0.36268849  0.88415483  0.12801253    -0.89800
O682        O  0.38836452  0.85669939  0.13502286    -0.92700
C683        C  0.37231192  0.87733609  0.30609266     1.01100
C684        C  0.43162772  0.86970482  0.22894029     1.14000
C685        C  0.36771837  0.93165836  0.22528233     1.04800
O686        O  0.32325712  0.90924554  0.20466432    -0.94800
O687        O  0.32251334  0.89046672  0.14704821    -0.90600
O688        O  0.32640859  0.86287998  0.12506516    -0.83700
C689        C  0.31695249  0.87660628  0.13163482     1.11400
O690        O  0.41651020  0.91060295  0.13461773    -0.96800
Zr691      Zr  0.39403169  0.88756158  0.12922415     1.88900
O692        O  0.36437407  0.85859969  0.07556190    -0.73400
O693        O  0.34742333  0.91990277  0.13088203    -0.52700
O694        O  0.38651543  0.91341261  0.09552743    -0.97400
O695        O  0.42309619  0.87754220  0.11045516    -0.54600
O696        O  0.38833587  0.87674579  0.07314118    -0.74000
C697        C  0.37662301  0.86687689  0.05939148     0.98400
O698        O  0.33758222  0.83002788  0.11348682    -0.62800
O699        O  0.40418386  0.82490528  0.23332509    -0.57600
O700        O  0.36634825  0.82229598  0.13056583    -0.94300
O701        O  0.39008579  0.81793965  0.16468651    -0.92700
O702        O  0.36292684  0.82993937  0.26599414    -0.93000
O703        O  0.33163887  0.83394896  0.23324261    -0.91800
C704        C  0.37830877  0.81243672  0.14389232     1.17200
H705        H  0.39078136  0.85604929  0.25747298     0.33200
H706        H  0.33121327  0.86506253  0.18517132     0.44000
H707        H  0.39368216  0.84991959  0.11697008     0.37600
H708        H  0.38399393  0.91501496  0.17386785     0.34000
H709        H  0.32593734  0.86073033  0.28299228     0.25800
H710        H  0.33601279  0.92595421  0.13503867     0.31800
H711        H  0.39332639  0.91205415  0.07428843     0.37700
H712        H  0.35764472  0.83123994  0.28876716     0.32100
H713        H  0.41253840  0.81632566  0.22316892     0.31000
H714        H  0.42761419  0.82504843  0.16733981     0.32700
H715        H  0.42451064  0.88244579  0.08745421     0.31700
H716        H  0.33246259  0.82926735  0.20993197     0.35700
H717        H  0.32761164  0.82920532  0.12969534     0.28400
H718        H  0.40916952  0.91702397  0.27079416     0.32600
H719        H  0.42070402  0.91311344  0.11141459     0.35500
H720        H  0.41133222  0.83134816  0.25027937     0.28100
H721        H  0.33236253  0.83465385  0.09237913     0.40900
H722        H  0.32487761  0.90592502  0.22860061     0.31000
H723        H  0.32595868  0.87783589  0.26078661     0.38600
H724        H  0.42188223  0.86463075  0.10697454     0.30500
H725        H  0.35651522  0.92892973  0.13617518     0.30500
H726        H  0.41406620  0.92154776  0.23314656     0.30800
Zr727      Zr  0.39269695  0.89282290  0.73004339     2.17500
O728        O  0.41620386  0.91367976  0.74449997    -0.51600
O729        O  0.38869796  0.88631676  0.79006997    -0.74800
O730        O  0.38204531  0.92311591  0.74109591    -0.81500
O731        O  0.42691914  0.85757896  0.70683214    -0.83300
O732        O  0.35572211  0.92685179  0.71458517    -0.78900
O733        O  0.42363554  0.88345175  0.73552853    -0.90600
O734        O  0.36839509  0.86420141  0.79451179    -0.76500
O735        O  0.36160924  0.88805958  0.73585080    -0.86000
O736        O  0.38847977  0.86156160  0.73397665    -0.85700
O737        O  0.37973904  0.90500278  0.67969876    -0.72400
O738        O  0.40396607  0.88023401  0.67846965    -0.84600
Zr739      Zr  0.35478043  0.85626344  0.63793788     2.26400
Zr740      Zr  0.34851539  0.89961364  0.68542436     2.06300
Zr741      Zr  0.39893702  0.84904489  0.68223522     2.10000
Zr742      Zr  0.35753935  0.85683407  0.73917539     1.78800
O743        O  0.42235890  0.84093625  0.64282565    -0.93400
O744        O  0.33094755  0.86552900  0.76989013    -0.41200
O745        O  0.36783867  0.84376346  0.68773170    -0.77800
O746        O  0.34363001  0.86841358  0.69015727    -0.96500
O747        O  0.35935547  0.88739748  0.63353665    -0.89800
O748        O  0.38592629  0.86069443  0.63198973    -0.92700
C749        C  0.37957057  0.87506946  0.80713534     1.01100
C750        C  0.43298010  0.87034504  0.72481797     1.14000
C751        C  0.36867938  0.93261442  0.73238537     1.04800
O752        O  0.32478679  0.90679016  0.72477137    -0.94800
O753        O  0.32041400  0.89229004  0.65886714    -0.90600
O754        O  0.32356688  0.86511449  0.63482793    -0.83700
C755        C  0.31423094  0.87861975  0.64356362     1.11400
O756        O  0.41499594  0.91292413  0.62849706    -0.96800
Zr757      Zr  0.39048353  0.89185179  0.62878234     1.88900
O758        O  0.36101636  0.86150571  0.57789133    -0.73400
O759        O  0.34147818  0.92343379  0.64638206    -0.52700
O760        O  0.38133778  0.92060020  0.60726153    -0.97400
O761        O  0.41650843  0.88204571  0.59733910    -0.54600
O762        O  0.37938701  0.88521097  0.57339274    -0.74000
C763        C  0.36945962  0.87323722  0.56069641     0.98400
O764        O  0.33191082  0.83811701  0.61162439    -0.62800
O765        O  0.40622494  0.82509755  0.72094678    -0.57600
O766        O  0.36281023  0.82480050  0.63564281    -0.94300
O767        O  0.39062071  0.82130062  0.65608257    -0.92700
O768        O  0.36711652  0.82835574  0.76108139    -0.93000
O769        O  0.33383229  0.83495645  0.74050413    -0.91800
C770        C  0.37647960  0.81531638  0.64231923     1.17200
H771        H  0.39488855  0.85668216  0.75283038     0.33200
H772        H  0.33127821  0.86576595  0.69372191     0.44000
H773        H  0.39049436  0.85461670  0.61234994     0.37600
H774        H  0.38223802  0.91748796  0.67789848     0.34000
H775        H  0.33213084  0.85996184  0.79237015     0.25800
H776        H  0.33175029  0.93001129  0.65750858     0.31800
H777        H  0.38513652  0.92067740  0.58332652     0.37700
H778        H  0.36062398  0.82694664  0.78266061     0.32100
H779        H  0.41553923  0.81823571  0.70918094     0.31000
H780        H  0.42883368  0.83125271  0.65414437     0.32700
H781        H  0.41221829  0.87279780  0.58162986     0.31700
H782        H  0.33443045  0.82910518  0.71814947     0.35700
H783        H  0.33786394  0.83164382  0.59305420     0.28400
H784        H  0.41297953  0.91864627  0.76682548     0.32600
H785        H  0.41650719  0.91658819  0.60467170     0.35500
H786        H  0.41242576  0.83074635  0.74012894     0.28100
H787        H  0.32879221  0.82895666  0.62844779     0.40900
H788        H  0.31781041  0.89574467  0.72688794     0.31000
H789        H  0.33248407  0.87833500  0.77426965     0.38600
H790        H  0.42368958  0.87554650  0.61407156     0.30500
H791        H  0.35175173  0.93156154  0.64741030     0.30500
H792        H  0.41510321  0.92363941  0.72844693     0.30800
Zr793      Zr  0.35578820  0.14153143  0.36163702     2.17500
O794        O  0.33617390  0.16415765  0.38479382    -0.51600
O795        O  0.35986737  0.13569177  0.42187665    -0.74800
O796        O  0.32448653  0.13247477  0.36383966    -0.81500
O797        O  0.39211737  0.17588364  0.34354134    -0.83300
O798        O  0.32135383  0.10516400  0.34031980    -0.78900
O799        O  0.36435880  0.17287375  0.36494644    -0.90600
O800        O  0.37757386  0.11165397  0.42764560    -0.76500
O801        O  0.35928979  0.11022532  0.36591701    -0.86000
O802        O  0.38668670  0.13643865  0.36996266    -0.85700
O803        O  0.34512215  0.12964818  0.30888225    -0.72400
O804        O  0.37060190  0.15333842  0.31288021    -0.84600
Zr805      Zr  0.39468238  0.10401192  0.27239973     2.26400
Zr806      Zr  0.34935365  0.09828974  0.31306911     2.06300
Zr807      Zr  0.40135075  0.14759461  0.32072654     2.10000
Zr808      Zr  0.39014279  0.10518596  0.37324541     1.78800
O809        O  0.41153262  0.17252805  0.28695254    -0.93400
O810        O  0.38125484  0.07643893  0.39531780    -0.41200
O811        O  0.40531763  0.11632385  0.32464210    -0.77800
O812        O  0.38018684  0.09225436  0.32186467    -0.96500
O813        O  0.36395759  0.10955676  0.26391806    -0.89800
O814        O  0.39135876  0.13538881  0.26841849    -0.92700
C815        C  0.36761453  0.12379796  0.43958174     1.01100
C816        C  0.37810407  0.18218643  0.35740353     1.14000
C817        C  0.31518320  0.11887791  0.35540848     1.04800
O818        O  0.33789131  0.07307238  0.34451116    -0.94800
O819        O  0.35713402  0.07036054  0.28663788    -0.90600
O820        O  0.38450345  0.07319195  0.26362409    -0.83700
C821        C  0.37062655  0.06398026  0.27103924     1.11400
O822        O  0.33763726  0.16346229  0.26264222    -0.96800
Zr823      Zr  0.36062728  0.14086892  0.26095904     1.88900
O824        O  0.39025897  0.10948103  0.21182948    -0.73400
O825        O  0.32794956  0.09527872  0.26762686    -0.52700
O826        O  0.33492486  0.13152704  0.22838998    -0.97400
O827        O  0.37012440  0.16895811  0.23668600    -0.54600
O828        O  0.37191604  0.13308919  0.20622993    -0.74000
C829        C  0.38187548  0.12099216  0.19408390     0.98400
O830        O  0.41924378  0.08461095  0.25743915    -0.62800
O831        O  0.42342135  0.15237996  0.36445776    -0.57600
O832        O  0.42582839  0.11311147  0.26853079    -0.94300
O833        O  0.42911779  0.14010628  0.29323103    -0.92700
O834        O  0.41515350  0.11428870  0.40783582    -0.93000
O835        O  0.41416906  0.08377187  0.37350900    -0.91800
C836        C  0.43511982  0.12675814  0.27671820     1.17200
H837        H  0.39092402  0.14229370  0.39007899     0.33200
H838        H  0.38237043  0.07976843  0.32449612     0.44000
H839        H  0.39826922  0.14011322  0.24994883     0.37600
H840        H  0.33286765  0.13249330  0.30489402     0.34000
H841        H  0.38668172  0.07581699  0.41799688     0.25800
H842        H  0.32037456  0.08520859  0.27454433     0.31800
H843        H  0.33705153  0.13601838  0.20526898     0.37700
H844        H  0.41351775  0.10797517  0.42950468     0.32100
H845        H  0.42995809  0.14106196  0.36566785     0.31000
H846        H  0.42026926  0.17873723  0.30132778     0.32700
H847        H  0.38151730  0.16637803  0.22532877     0.31700
H848        H  0.41728599  0.08216046  0.34940553     0.35700
H849        H  0.41764687  0.07366200  0.27078532     0.28400
H850        H  0.32986570  0.15854847  0.40393575     0.32600
H851        H  0.33503819  0.16630989  0.23878738     0.35500
H852        H  0.43196543  0.16079853  0.35433888     0.28100
H853        H  0.41710507  0.08114822  0.23370242     0.40900
H854        H  0.34851588  0.06704360  0.35338342     0.31000
H855        H  0.36842272  0.07761409  0.39983086     0.38600
H856        H  0.37340278  0.17635833  0.25635484     0.30500
H857        H  0.32020298  0.10576380  0.26984359     0.30500
H858        H  0.32700655  0.16623756  0.36745430     0.30800
Zr859      Zr  0.39341493  0.10540248  0.76776633     2.17500
O860        O  0.41592197  0.08564147  0.74471121    -0.51600
O861        O  0.38551237  0.11039891  0.70853102    -0.74800
O862        O  0.38325051  0.07453787  0.76184553    -0.81500
O863        O  0.42806475  0.14166243  0.78620745    -0.83300
O864        O  0.35732995  0.07101071  0.79031275    -0.78900
O865        O  0.42476297  0.11462696  0.76190054    -0.90600
O866        O  0.36350947  0.13058151  0.70753135    -0.76500
O867        O  0.36199397  0.10886108  0.76843352    -0.86000
O868        O  0.38780891  0.13640489  0.76285556    -0.85700
O869        O  0.38329482  0.09355557  0.82100520    -0.72400
O870        O  0.40645577  0.11909835  0.81637016    -0.84600
Zr871      Zr  0.35857528  0.14193076  0.86512917     2.26400
Zr872      Zr  0.35182227  0.09774343  0.82178046     2.06300
Zr873      Zr  0.40023103  0.14992035  0.81200739     2.10000
Zr874      Zr  0.35650155  0.13973150  0.76395988     1.78800
O875        O  0.42456071  0.15968925  0.84764610    -0.93400
O876        O  0.32881338  0.12871868  0.74043797    -0.41200
O877        O  0.36888625  0.15395950  0.81236965    -0.77800
O878        O  0.34533018  0.12854957  0.81583900    -0.96500
O879        O  0.36459287  0.11116493  0.87049747    -0.89800
O880        O  0.38997938  0.13882511  0.86518011    -0.92700
C881        C  0.37417633  0.11995509  0.69278586     1.01100
C882        C  0.43424751  0.12815422  0.77043534     1.14000
C883        C  0.36994978  0.06517309  0.77175166     1.04800
O884        O  0.32568852  0.08538365  0.79470820    -0.94800
O885        O  0.32451447  0.10487961  0.85149919    -0.90600
O886        O  0.32782132  0.13253640  0.87327061    -0.83700
C887        C  0.31857959  0.11860165  0.86696299     1.11400
O888        O  0.41945444  0.08602637  0.86506777    -0.96800
Zr889      Zr  0.39593564  0.10796755  0.86900332     1.88900
O890        O  0.36700920  0.13661668  0.92413364    -0.73400
O891        O  0.35204916  0.07567884  0.86644790    -0.52700
O892        O  0.38856490  0.08047047  0.89787962    -0.97400
O893        O  0.42391387  0.11938299  0.89062176    -0.54600
O894        O  0.38883113  0.11614340  0.92601615    -0.74000
C895        C  0.37787999  0.12666894  0.94024491     0.98400
O896        O  0.33799773  0.15972824  0.89847838    -0.62800
O897        O  0.40514077  0.17254627  0.76925457    -0.57600
O898        O  0.36523455  0.17372483  0.86294160    -0.94300
O899        O  0.39186974  0.17769807  0.83744375    -0.92700
O900        O  0.36223968  0.16751209  0.73481060    -0.93000
O901        O  0.33252124  0.16108320  0.76856307    -0.91800
C902        C  0.37818567  0.18352054  0.85306487     1.17200
H903        H  0.39304900  0.14122117  0.74258107     0.33200
H904        H  0.33280056  0.13068055  0.81398919     0.44000
H905        H  0.39521005  0.14539774  0.88356215     0.37600
H906        H  0.38623965  0.08118681  0.82309562     0.34000
H907        H  0.32764765  0.13479560  0.71843934     0.25800
H908        H  0.34017983  0.07014274  0.86543858     0.31800
H909        H  0.39374560  0.08162669  0.92069975     0.37700
H910        H  0.37282434  0.16526065  0.72067424     0.32100
H911        H  0.39409216  0.17956095  0.76904967     0.31000
H912        H  0.42917498  0.17048069  0.83653031     0.32700
H913        H  0.42071209  0.12928690  0.90582411     0.31700
H914        H  0.33236527  0.16452087  0.79269545     0.35700
H915        H  0.34532870  0.16743175  0.91308890     0.28400
H916        H  0.41052490  0.07989617  0.72476661     0.32600
H917        H  0.42376828  0.08438438  0.88842490     0.35500
H918        H  0.41407794  0.18058083  0.77923207     0.28100
H919        H  0.33221745  0.16781798  0.88231486     0.40900
H920        H  0.31978921  0.09566227  0.78418269     0.31000
H921        H  0.33121331  0.11622781  0.73444081     0.38600
H922        H  0.42963672  0.12512982  0.87097018     0.30500
H923        H  0.36020383  0.06635160  0.85833434     0.30500
H924        H  0.41733222  0.07607515  0.76153012     0.30800
Zr925      Zr  0.10921759  0.10825169  0.49295005     2.17500
O926        O  0.08860419  0.09175627  0.52855526    -0.51600
O927        O  0.11748145  0.11735736  0.55026651    -0.74800
O928        O  0.11833536  0.07721522  0.50123219    -0.81500
O929        O  0.07353297  0.14297935  0.47117877    -0.83300
O930        O  0.14449963  0.07287945  0.47406114    -0.78900
O931        O  0.07777688  0.11640157  0.49662450    -0.90600
O932        O  0.13727278  0.13989002  0.54848327    -0.76500
O933        O  0.14041830  0.11296170  0.49211089    -0.86000
O934        O  0.11350632  0.13952473  0.49157396    -0.85700
O935        O  0.11947361  0.09392848  0.44194132    -0.72400
O936        O  0.09537055  0.11858101  0.44208924    -0.84600
Zr937      Zr  0.14255270  0.14044841  0.38966451     2.26400
Zr938      Zr  0.15078944  0.09908367  0.44116595     2.06300
Zr939      Zr  0.10038911  0.14977198  0.44036494     2.10000
Zr940      Zr  0.14459311  0.14424318  0.49018024     1.78800
O941        O  0.07541814  0.15465014  0.40284905    -0.93400
O942        O  0.17216403  0.13588796  0.51753343    -0.41200
O943        O  0.13159824  0.15500718  0.43943317    -0.77800
O944        O  0.15633531  0.13038082  0.44092352    -0.96500
O945        O  0.13762882  0.10935662  0.39008360    -0.89800
O946        O  0.11121182  0.13618040  0.38982450    -0.92700
C947        C  0.12726194  0.12915115  0.56445375     1.01100
C948        C  0.06800869  0.12962028  0.48814669     1.14000
C949        C  0.13148792  0.06743559  0.49217857     1.04800
O950        O  0.17668178  0.09159312  0.47454109    -0.94800
O951        O  0.17736324  0.10444594  0.40826230    -0.90600
O952        O  0.17332808  0.13092125  0.38229027    -0.83700
C953        C  0.18282749  0.11749231  0.39038426     1.11400
O954        O  0.08555143  0.08093404  0.40170489    -0.96800
Zr955      Zr  0.10641730  0.10506204  0.39162493     1.88900
O956        O  0.13443728  0.13212839  0.33219107    -0.73400
O957        O  0.15438860  0.07435419  0.40224285    -0.52700
O958        O  0.11625042  0.07770337  0.36485741    -0.97400
O959        O  0.07683968  0.11202060  0.37132882    -0.54600
O960        O  0.11209376  0.11207914  0.33321116    -0.74000
C961        C  0.12303963  0.12210418  0.31759098     0.98400
O962        O  0.16042231  0.16066617  0.35560723    -0.62800
O963        O  0.09292378  0.17474784  0.47667708    -0.57600
O964        O  0.13500916  0.17167918  0.38424446    -0.94300
O965        O  0.10822765  0.17618995  0.40905309    -0.92700
O966        O  0.13585570  0.17347584  0.51003543    -0.93000
O967        O  0.16802212  0.16609931  0.48292211    -0.91800
C968        C  0.12162928  0.18140808  0.39174173     1.17200
H969        H  0.10803296  0.14525963  0.51074517     0.33200
H970        H  0.16883444  0.13293437  0.44187634     0.44000
H971        H  0.10580991  0.14154125  0.37030097     0.37600
H972        H  0.11668329  0.08148373  0.44126728     0.34000
H973        H  0.17340696  0.14422013  0.53670570     0.25800
H974        H  0.16447589  0.06755289  0.41137019     0.31800
H975        H  0.11020616  0.07736130  0.34273131     0.37700
H976        H  0.13486660  0.18074151  0.48936319     0.32100
H977        H  0.10259658  0.18342726  0.47339394     0.31000
H978        H  0.06920547  0.16502552  0.41247745     0.32700
H979        H  0.07508095  0.10429554  0.35142434     0.31700
H980        H  0.16947333  0.16717591  0.45816616     0.35700
H981        H  0.17084102  0.16377802  0.36952779     0.28400
H982        H  0.09548993  0.08812482  0.54857061     0.32600
H983        H  0.08229707  0.07627657  0.37918908     0.35500
H984        H  0.08250299  0.18025435  0.46589705     0.28100
H985        H  0.16517555  0.15353121  0.33665462     0.40900
H986        H  0.18250945  0.10308892  0.47911703     0.31000
H987        H  0.16963185  0.12433485  0.52826601     0.38600
H988        H  0.07780813  0.12409685  0.36189316     0.30500
H989        H  0.14395088  0.06669815  0.40621582     0.30500
H990        H  0.08594020  0.08063266  0.51632161     0.30800
Zr991      Zr  0.10837350  0.10559697  0.98620214     2.17500
O992        O  0.08555013  0.08704496  0.01192254    -0.51600
O993        O  0.11375615  0.11085428  0.04635298    -0.74800
O994        O  0.11692084  0.07438269  0.99029275    -0.81500
O995        O  0.07349354  0.14028942  0.96298700    -0.83300
O996        O  0.14453408  0.07086791  0.96832649    -0.78900
O997        O  0.07699693  0.11323173  0.98681100    -0.90600
O998        O  0.13326225  0.13349449  0.05221451    -0.76500
O999        O  0.13938572  0.11007834  0.99248124    -0.86000
O1000       O  0.11256654  0.13675985  0.99236306    -0.85700
O1001       O  0.12114413  0.09402312  0.93484419    -0.72400
O1002       O  0.09713452  0.11917523  0.93591978    -0.84600
Zr1003     Zr  0.14623284  0.14293832  0.89600014     2.26400
Zr1004     Zr  0.15234412  0.09882175  0.94147772     2.06300
Zr1005     Zr  0.10208884  0.15027961  0.94168545     2.10000
Zr1006     Zr  0.14355851  0.14130959  0.99699918     1.78800
O1007       O  0.07910742  0.16044509  0.90344798    -0.93400
O1008       O  0.16971660  0.13201157  0.02800642    -0.41200
O1009       O  0.13330197  0.15500888  0.94650785    -0.77800
O1010       O  0.15738934  0.13002323  0.94730551    -0.96500
O1011       O  0.14148749  0.11190399  0.89042610    -0.89800
O1012       O  0.11498916  0.13926459  0.89048733    -0.92700
C1013       C  0.12272210  0.12187494  0.06421395     1.01100
C1014       C  0.06742451  0.12647545  0.97799354     1.14000
C1015       C  0.13052996  0.06493912  0.98289555     1.04800
O1016       O  0.17548029  0.09271191  0.98244645    -0.94800
O1017       O  0.18021011  0.10598255  0.91374114    -0.90600
O1018       O  0.17701444  0.13333299  0.89051478    -0.83700
C1019       C  0.18623620  0.11966404  0.89832565     1.11400
O1020       O  0.08946732  0.08351011  0.88600670    -0.96800
Zr1021     Zr  0.11031346  0.10820623  0.88528295     1.88900
O1022       O  0.13987344  0.13887206  0.83591134    -0.73400
O1023       O  0.16054113  0.07484112  0.90340104    -0.52700
O1024       O  0.12190949  0.08331046  0.85293813    -0.97400
O1025       O  0.08099444  0.11581646  0.86452991    -0.54600
O1026       O  0.11703545  0.11960120  0.82991953    -0.74000
C1027       C  0.12856296  0.13033765  0.81797280     0.98400
O1028       O  0.16978751  0.16113011  0.87185744    -0.62800
O1029       O  0.09426574  0.17247164  0.98385846    -0.57600
O1030       O  0.13875757  0.17451130  0.89409636    -0.94300
O1031       O  0.11202859  0.17865004  0.91922144    -0.92700
O1032       O  0.13345753  0.16914048  0.02134098    -0.93000
O1033       O  0.16699304  0.16345373  0.99833498    -0.91800
C1034       C  0.12586064  0.18442371  0.90374820     1.17200
H1035       H  0.10626011  0.14121300  0.01182170     0.33200
H1036       H  0.16978752  0.13249344  0.95049623     0.44000
H1037       H  0.11037801  0.14577720  0.87150760     0.37600
H1038       H  0.11849935  0.08167460  0.93128687     0.34000
H1039       H  0.16926830  0.13875172  0.04945108     0.25800
H1040       H  0.16849957  0.06720608  0.91678116     0.31800
H1041       H  0.11557248  0.08366374  0.83111751     0.37700
H1042       H  0.13216528  0.17722870  0.00188551     0.32100
H1043       H  0.08481219  0.17953280  0.97315466     0.31000
H1044       H  0.07437815  0.17131383  0.91412266     0.32700
H1045       H  0.08100068  0.11208916  0.84057473     0.31700
H1046       H  0.16895811  0.16657907  0.97435601     0.35700
H1047       H  0.16438755  0.16744157  0.85259855     0.28400
H1048       H  0.09127645  0.08109498  0.03125357     0.32600
H1049       H  0.08666127  0.08095153  0.86209580     0.35500
H1050       H  0.08817499  0.16597851  0.00219256     0.28100
H1051       H  0.17233518  0.17041660  0.88883931     0.40900
H1052       H  0.18237081  0.10384021  0.98390488     0.31000
H1053       H  0.16721711  0.11964395  0.03472083     0.38600
H1054       H  0.08086750  0.12890249  0.86377628     0.30500
H1055       H  0.14959448  0.06777211  0.90061643     0.30500
H1056       H  0.08311150  0.07749308  0.99541486     0.30800
Zr1057     Zr  0.85395714  0.35660074  0.39965964     2.17500
O1058       O  0.83384875  0.33356962  0.37959481    -0.51600
O1059       O  0.86062695  0.36086083  0.33980565    -0.74800
O1060       O  0.82319358  0.36652870  0.39185423    -0.81500
O1061       O  0.88868809  0.32160060  0.42282421    -0.83300
O1062       O  0.81945408  0.39363497  0.41592551    -0.78900
O1063       O  0.86264956  0.32555977  0.39529561    -0.90600
O1064       O  0.88180130  0.38192995  0.33589652    -0.76500
O1065       O  0.85918585  0.38758217  0.39371639    -0.86000
O1066       O  0.88534975  0.36017838  0.39631051    -0.85700
O1067       O  0.84169461  0.36968007  0.44996014    -0.72400
O1068       O  0.86615090  0.34494536  0.45094589    -0.84600
Zr1069     Zr  0.89026141  0.39390118  0.49245313     2.26400
Zr1070     Zr  0.84728271  0.40079911  0.44407585     2.06300
Zr1071     Zr  0.89746216  0.34948405  0.44807378     2.10000
Zr1072     Zr  0.89056110  0.39100318  0.39136772     1.78800
O1073       O  0.90493475  0.32640524  0.48836061    -0.93400
O1074       O  0.88419694  0.41889255  0.36326173    -0.41200
O1075       O  0.90287527  0.38047541  0.44289301    -0.77800
O1076       O  0.87874719  0.40525644  0.44003914    -0.96500
O1077       O  0.85905092  0.38971598  0.49605531    -0.89800
O1078       O  0.88566885  0.36279404  0.49812389    -0.92700
C1079       C  0.87123087  0.37067606  0.32270198     1.01100
C1080       C  0.87564333  0.31591761  0.40511737     1.14000
C1081       C  0.81369339  0.38006973  0.39968260     1.04800
O1082       O  0.83849089  0.42455983  0.40632355    -0.94800
O1083       O  0.85595114  0.42929560  0.46748123    -0.90600
O1084       O  0.88143544  0.42505926  0.49675805    -0.83700
C1085       C  0.86904442  0.43493555  0.48513076     1.11400
O1086       O  0.83072870  0.33667671  0.49871211    -0.96800
Zr1087     Zr  0.85446753  0.35855975  0.50052756     1.88900
O1088       O  0.88375391  0.38837769  0.55221727    -0.73400
O1089       O  0.82482182  0.40756333  0.48631773    -0.52700
O1090       O  0.82756963  0.36891173  0.52828956    -0.97400
O1091       O  0.86320515  0.33044315  0.52551943    -0.54600
O1092       O  0.86284450  0.36694289  0.55654043    -0.74000
C1093       C  0.87355747  0.37813982  0.56942643     0.98400
O1094       O  0.91237392  0.41291802  0.51904429    -0.62800
O1095       O  0.92100755  0.34099395  0.40915317    -0.57600
O1096       O  0.92167579  0.38620686  0.49472991    -0.94300
O1097       O  0.92531171  0.35850008  0.47351975    -0.92700
O1098       O  0.91739119  0.37956799  0.36506706    -0.93000
O1099       O  0.91513649  0.41189991  0.39156116    -0.91800
C1100       C  0.93126062  0.37268786  0.48739331     1.17200
H1101       H  0.89023443  0.35372743  0.37738549     0.33200
H1102       H  0.88185694  0.41748627  0.43650509     0.44000
H1103       H  0.89157100  0.35822029  0.51783949     0.37600
H1104       H  0.82922401  0.36727571  0.45235870     0.34000
H1105       H  0.88901430  0.41747784  0.34014489     0.25800
H1106       H  0.81717435  0.41649222  0.47542172     0.31800
H1107       H  0.82798085  0.36391251  0.55135345     0.37700
H1108       H  0.91769021  0.38495956  0.34231287     0.32100
H1109       H  0.92861135  0.35162517  0.40717493     0.31000
H1110       H  0.91355728  0.31880892  0.47631832     0.32700
H1111       H  0.87394567  0.33309480  0.53884975     0.31700
H1112       H  0.91435838  0.41786422  0.41378516     0.35700
H1113       H  0.91454927  0.42276757  0.50310295     0.28400
H1114       H  0.82853519  0.33814354  0.35854821     0.32600
H1115       H  0.82837820  0.33340836  0.52250294     0.35500
H1116       H  0.92825546  0.33239968  0.42186758     0.28100
H1117       H  0.90644386  0.41840610  0.53876594     0.40900
H1118       H  0.83933522  0.41940620  0.38338489     0.31000
H1119       H  0.87120180  0.41889315  0.36025890     0.38600
H1120       H  0.86752279  0.32321255  0.50633263     0.30500
H1121       H  0.81739323  0.39677891  0.48745065     0.30500
H1122       H  0.82400699  0.33305700  0.39613469     0.30800
Zr1123     Zr  0.85666429  0.35855798  0.89863529     2.17500
O1124       O  0.83699489  0.33706060  0.87192712    -0.51600
O1125       O  0.86255157  0.36559818  0.83945924    -0.74800
O1126       O  0.82590781  0.36886023  0.89285329    -0.81500
O1127       O  0.89103437  0.32233937  0.91855408    -0.83300
O1128       O  0.82244807  0.39517381  0.92008156    -0.78900
O1129       O  0.86413270  0.32707236  0.89464351    -0.90600
O1130       O  0.88465013  0.38590941  0.83623420    -0.76500
O1131       O  0.86177411  0.38961936  0.89626415    -0.86000
O1132       O  0.88799658  0.36234622  0.89425655    -0.85700
O1133       O  0.84486185  0.37008757  0.95067764    -0.72400
O1134       O  0.86937422  0.34545973  0.94817363    -0.84600
Zr1135     Zr  0.89403175  0.39340532  0.99385180     2.26400
Zr1136     Zr  0.85034078  0.40132574  0.94819291     2.06300
Zr1137     Zr  0.90061826  0.35000019  0.94428627     2.10000
Zr1138     Zr  0.89305550  0.39338302  0.89288077     1.78800
O1139       O  0.90865693  0.32586518  0.98182406    -0.93400
O1140       O  0.88495048  0.42132852  0.86665699    -0.41200
O1141       O  0.90610373  0.38120976  0.94246859    -0.77800
O1142       O  0.88159741  0.40604743  0.94339942    -0.96500
O1143       O  0.86286518  0.38887598  0.99824694    -0.89800
O1144       O  0.88944146  0.36207188  0.99609221    -0.92700
C1145       C  0.87315409  0.37567236  0.82287509     1.01100
C1146       C  0.87713235  0.31699978  0.90288561     1.14000
C1147       C  0.81658426  0.38222170  0.90234568     1.04800
O1148       O  0.84352866  0.42621157  0.91154830    -0.94800
O1149       O  0.85842301  0.42867055  0.97659319    -0.90600
O1150       O  0.88539720  0.42485740  0.00069799    -0.83700
C1151       C  0.87198523  0.43454118  0.99265232     1.11400
O1152       O  0.83342033  0.33714930  0.99497006    -0.96800
Zr1153     Zr  0.85825629  0.35766921  0.99952308     1.88900
O1154       O  0.88813991  0.38581980  0.05317799    -0.73400
O1155       O  0.82697156  0.40714709  0.98919065    -0.52700
O1156       O  0.83260907  0.36861533  0.03053473    -0.97400
O1157       O  0.86560602  0.32849922  0.02155610    -0.54600
O1158       O  0.86820515  0.36332219  0.05582718    -0.74000
C1159       C  0.87866458  0.37450400  0.06947373     0.98400
O1160       O  0.91328551  0.41441586  0.02284837    -0.62800
O1161       O  0.92296377  0.34255510  0.90214233    -0.57600
O1162       O  0.92560884  0.38493162  0.99290798    -0.94300
O1163       O  0.92893988  0.35763361  0.96951920    -0.92700
O1164       O  0.92027412  0.38415889  0.86498249    -0.93000
O1165       O  0.91580706  0.41600768  0.89900368    -0.91800
C1166       C  0.93511595  0.37152692  0.98406665     1.17200
H1167       H  0.89265927  0.35654297  0.87439070     0.33200
H1168       H  0.88435397  0.41843992  0.94104042     0.44000
H1169       H  0.89557094  0.35685861  0.01495702     0.37600
H1170       H  0.83243363  0.36754488  0.95316112     0.34000
H1171       H  0.89158849  0.42154996  0.84507245     0.25800
H1172       H  0.81922627  0.41593073  0.97810954     0.31800
H1173       H  0.83269849  0.36219025  0.05228642     0.37700
H1174       H  0.92069020  0.39111509  0.84384122     0.32100
H1175       H  0.93106084  0.35286533  0.90170200     0.31000
H1176       H  0.91882777  0.32005496  0.97058454     0.32700
H1177       H  0.87702404  0.33010185  0.03335621     0.31700
H1178       H  0.91746315  0.41721338  0.92368521     0.35700
H1179       H  0.91988559  0.40748919  0.03983363     0.28400
H1180       H  0.83183640  0.34313423  0.85215413     0.32600
H1181       H  0.83052501  0.33360096  0.01838984     0.35500
H1182       H  0.92997633  0.33296635  0.91254598     0.28100
H1183       H  0.92224737  0.41816389  0.00602479     0.40900
H1184       H  0.84141644  0.42092123  0.88903287     0.31000
H1185       H  0.87244365  0.41977794  0.85990739     0.38600
H1186       H  0.86860355  0.32135540  0.00136195     0.30500
H1187       H  0.81984433  0.39615208  0.98975170     0.30500
H1188       H  0.82699483  0.33535382  0.88782082     0.30800
Zr1189     Zr  0.89459570  0.60860879  0.02333738     2.17500
O1190       O  0.91897296  0.58990007  0.00462539    -0.51600
O1191       O  0.88766354  0.61260917  0.96345407    -0.74800
O1192       O  0.88497752  0.57751402  0.01705268    -0.81500
O1193       O  0.92985261  0.64364324  0.04466715    -0.83300
O1194       O  0.85757312  0.57469450  0.03996375    -0.78900
O1195       O  0.92547034  0.61812121  0.01549570    -0.90600
O1196       O  0.86563980  0.63289481  0.95934123    -0.76500
O1197       O  0.86362775  0.61381612  0.01777671    -0.86000
O1198       O  0.89096953  0.63989723  0.01893840    -0.85700
O1199       O  0.88149232  0.59689713  0.07420886    -0.72400
O1200       O  0.90628262  0.62134024  0.07433378    -0.84600
Zr1201     Zr  0.85725165  0.64592631  0.11582492     2.26400
Zr1202     Zr  0.85038444  0.60245794  0.06837898     2.06300
Zr1203     Zr  0.90189728  0.65259263  0.07032640     2.10000
Zr1204     Zr  0.86012291  0.64508252  0.01447898     1.78800
O1205       O  0.92436543  0.65995102  0.11201789    -0.93400
O1206       O  0.83066862  0.64022483  0.99151257    -0.41200
O1207       O  0.87083096  0.65779828  0.06563208    -0.77800
O1208       O  0.84598208  0.63384584  0.06372905    -0.96500
O1209       O  0.86138661  0.61476499  0.12006429    -0.89800
O1210       O  0.88845598  0.64144188  0.12091339    -0.92700
C1211       C  0.87632299  0.62161027  0.94654067     1.01100
C1212       C  0.93536193  0.63095059  0.02569841     1.14000
C1213       C  0.87115610  0.56826876  0.02459276     1.04800
O1214       O  0.82617827  0.59425929  0.03102506    -0.94800
O1215       O  0.82193814  0.61083159  0.09253041    -0.90600
O1216       O  0.82576822  0.63711479  0.11976392    -0.83700
C1217       C  0.81605486  0.62422746  0.10911664     1.11400
O1218       O  0.91354894  0.58586802  0.12216037    -0.96800
Zr1219     Zr  0.89254417  0.61028390  0.12443651     1.88900
O1220       O  0.86268717  0.63979651  0.17590714    -0.73400
O1221       O  0.84406901  0.57953941  0.10979892    -0.52700
O1222       O  0.88174773  0.58446994  0.15509725    -0.97400
O1223       O  0.92095285  0.61847683  0.14898681    -0.54600
O1224       O  0.88508227  0.61997786  0.18035850    -0.74000
C1225       C  0.87357426  0.63039149  0.19316928     0.98400
O1226       O  0.83827374  0.66840622  0.14140561    -0.62800
O1227       O  0.91162400  0.67593363  0.03215125    -0.57600
O1228       O  0.86556729  0.67733062  0.11799547    -0.94300
O1229       O  0.89244530  0.68110283  0.09308780    -0.92700
O1230       O  0.87324223  0.67027987  0.98537188    -0.93000
O1231       O  0.84057980  0.67066237  0.01429747    -0.91800
C1232       C  0.87870354  0.68706263  0.10860580     1.17200
H1233       H  0.89725117  0.64434677  0.99945210     0.33200
H1234       H  0.83374131  0.63683968  0.06026843     0.44000
H1235       H  0.89313049  0.64754598  0.14039462     0.37600
H1236       H  0.88383103  0.58445020  0.07699579     0.34000
H1237       H  0.83118507  0.64502617  0.96829883     0.25800
H1238       H  0.83421358  0.57265250  0.09986004     0.31800
H1239       H  0.86964794  0.58764219  0.16257257     0.37700
H1240       H  0.86633714  0.67142533  0.96429713     0.32100
H1241       H  0.92335039  0.67963073  0.04075573     0.31000
H1242       H  0.93315103  0.66719269  0.09959319     0.32700
H1243       H  0.91840609  0.62865458  0.16398483     0.31700
H1244       H  0.83827627  0.67313116  0.03846760     0.35700
H1245       H  0.82869753  0.67064229  0.12495425     0.28400
H1246       H  0.91588724  0.58631590  0.98134981     0.32600
H1247       H  0.91656725  0.58329322  0.14594921     0.35500
H1248       H  0.91420906  0.67007247  0.01033919     0.28100
H1249       H  0.83241329  0.66260991  0.16086395     0.40900
H1250       H  0.83112655  0.59539842  0.00796403     0.31000
H1251       H  0.82981989  0.62725673  0.98848218     0.38600
H1252       H  0.92782310  0.62361227  0.13006679     0.30500
H1253       H  0.85436327  0.57147782  0.10865679     0.30500
H1254       H  0.91833332  0.57895200  0.01825492     0.30800
Zr1255     Zr  0.85581060  0.64290010  0.61724271     2.17500
O1256       O  0.83753807  0.66377805  0.64895717    -0.51600
O1257       O  0.86140930  0.63625541  0.67685460    -0.74800
O1258       O  0.82457606  0.63421669  0.61999939    -0.81500
O1259       O  0.89067256  0.67850003  0.59569809    -0.83300
O1260       O  0.82118086  0.60684705  0.59697967    -0.78900
O1261       O  0.86307860  0.67448199  0.61747874    -0.90600
O1262       O  0.88057740  0.61329059  0.68033853    -0.76500
O1263       O  0.86017930  0.61176154  0.62044308    -0.86000
O1264       O  0.88698198  0.63859931  0.62228160    -0.85700
O1265       O  0.84407994  0.63137408  0.56489729    -0.72400
O1266       O  0.86904134  0.65551468  0.56762264    -0.84600
Zr1267     Zr  0.89283162  0.60706625  0.52309268     2.26400
Zr1268     Zr  0.84889215  0.60008990  0.56856964     2.06300
Zr1269     Zr  0.90006841  0.65041244  0.57192742     2.10000
Zr1270     Zr  0.89133455  0.60746447  0.62429183     1.78800
O1271       O  0.90871449  0.67373014  0.53282938    -0.93400
O1272       O  0.88435933  0.57897723  0.64981455    -0.41200
O1273       O  0.90462783  0.61917584  0.57443848    -0.77800
O1274       O  0.88006191  0.59459219  0.57364602    -0.96500
O1275       O  0.86180881  0.61215466  0.51829657    -0.89800
O1276       O  0.88915291  0.63841827  0.52000973    -0.92700
C1277       C  0.87032826  0.62479342  0.69360045     1.01100
C1278       C  0.87639510  0.68426845  0.60948465     1.14000
C1279       C  0.81516783  0.62067626  0.61189933     1.04800
O1280       O  0.84095685  0.57555909  0.60542137    -0.94800
O1281       O  0.85616164  0.57268161  0.54013308    -0.90600
O1282       O  0.88254742  0.57650726  0.51406200    -0.83700
C1283       C  0.86916307  0.56689950  0.52253428     1.11400
O1284       O  0.83545599  0.66621992  0.52084002    -0.96800
Zr1285     Zr  0.85818382  0.64347350  0.51608897     1.88900
O1286       O  0.88768874  0.61373703  0.46335923    -0.73400
O1287       O  0.82537537  0.59432382  0.52810757    -0.52700
O1288       O  0.83210410  0.63595310  0.48295128    -0.97400
O1289       O  0.86841691  0.67176994  0.49377615    -0.54600
O1290       O  0.86762565  0.63596568  0.46001110    -0.74000
C1291       C  0.87816884  0.62473497  0.44665411     0.98400
O1292       O  0.91503279  0.58698435  0.49992538    -0.62800
O1293       O  0.92235548  0.65859222  0.61340141    -0.57600
O1294       O  0.92436113  0.61510312  0.52167799    -0.94300
O1295       O  0.92829343  0.64149985  0.54807122    -0.92700
O1296       O  0.91791406  0.61839275  0.65214155    -0.93000
O1297       O  0.91562020  0.58639969  0.62155823    -0.91800
C1298       C  0.93416376  0.62806651  0.53159626     1.17200
H1299       H  0.89159028  0.64445601  0.64210173     0.33200
H1300       H  0.88254177  0.58212403  0.57560782     0.44000
H1301       H  0.89556081  0.64332717  0.50107432     0.37600
H1302       H  0.83174949  0.63407700  0.56158343     0.34000
H1303       H  0.89083526  0.57893126  0.67150494     0.25800
H1304       H  0.81781692  0.58529227  0.53910907     0.31800
H1305       H  0.82254389  0.63410460  0.49971421     0.37700
H1306       H  0.91386148  0.62312335  0.67415358     0.32100
H1307       H  0.93019134  0.64815225  0.61503521     0.31000
H1308       H  0.91942349  0.67908021  0.54296535     0.32700
H1309       H  0.87824809  0.66884918  0.47818123     0.31700
H1310       H  0.91643295  0.58310512  0.59740209     0.35700
H1311       H  0.91586417  0.57693299  0.51584134     0.28400
H1312       H  0.83166038  0.65679863  0.66692466     0.32600
H1313       H  0.83349613  0.67054339  0.49757696     0.35500
H1314       H  0.92966755  0.66771396  0.60207327     0.28100
H1315       H  0.90994188  0.58198917  0.47896100     0.40900
H1316       H  0.85201575  0.56870234  0.60800836     0.31000
H1317       H  0.87174540  0.57986920  0.65641828     0.38600
H1318       H  0.87417909  0.67775011  0.51309507     0.30500
H1319       H  0.81808827  0.60518931  0.52825689     0.30500
H1320       H  0.82789139  0.66731751  0.63353614     0.30800
Zr1321     Zr  0.64311738  0.64485604  0.14023527     2.17500
O1322       O  0.66402779  0.66915305  0.13221470    -0.51600
O1323       O  0.63812514  0.64219650  0.07969855    -0.74800
O1324       O  0.67345976  0.63506672  0.12881830    -0.81500
O1325       O  0.60715864  0.67813677  0.16333976    -0.83300
O1326       O  0.67755118  0.60813540  0.15282253    -0.78900
O1327       O  0.63284723  0.67528893  0.13394889    -0.90600
O1328       O  0.61629594  0.62190999  0.07239038    -0.76500
O1329       O  0.63866345  0.61400955  0.13048951    -0.86000
O1330       O  0.61202930  0.64058347  0.13452610    -0.85700
O1331       O  0.65481404  0.63035808  0.18928997    -0.72400
O1332       O  0.63006134  0.65481478  0.19226626    -0.84600
Zr1333     Zr  0.60617837  0.60424794  0.22695583     2.26400
Zr1334     Zr  0.64986141  0.59941197  0.17954996     2.06300
Zr1335     Zr  0.59904417  0.64967170  0.18667270     2.10000
Zr1336     Zr  0.60753888  0.60983773  0.12598326     1.78800
O1337       O  0.59086292  0.67076909  0.23050889    -0.93400
O1338       O  0.61666167  0.58422341  0.09284776    -0.41200
O1339       O  0.59442937  0.61874622  0.17803701    -0.77800
O1340       O  0.61860485  0.59428663  0.17397617    -0.96500
O1341       O  0.63722362  0.60877067  0.23221517    -0.89800
O1342       O  0.61012037  0.63522935  0.23595830    -0.92700
C1343       C  0.62752253  0.63315415  0.06116537     1.01100
C1344       C  0.61965900  0.68439807  0.14485897     1.14000
C1345       C  0.68315186  0.62166730  0.13636650     1.04800
O1346       O  0.65754226  0.57719093  0.13742513    -0.94800
O1347       O  0.64277620  0.57062802  0.20327328    -0.90600
O1348       O  0.61663293  0.57367400  0.23086015    -0.83700
C1349       C  0.62990170  0.56439505  0.22081169     1.11400
O1350       O  0.66460121  0.66200032  0.24000656    -0.96800
Zr1351     Zr  0.64120845  0.63973527  0.24067150     1.88900
O1352       O  0.61139148  0.60786698  0.28774592    -0.73400
O1353       O  0.67353439  0.59160998  0.21824884    -0.52700
O1354       O  0.66768585  0.62842114  0.26808858    -0.97400
O1355       O  0.63261654  0.66637767  0.27139112    -0.54600
O1356       O  0.63175449  0.62966553  0.29529948    -0.74000
C1357       C  0.62102221  0.61795464  0.30636443     0.98400
O1358       O  0.58350640  0.58348245  0.24617327    -0.62800
O1359       O  0.57526750  0.65962423  0.14982460    -0.57600
O1360       O  0.57478242  0.61195067  0.23083543    -0.94300
O1361       O  0.57079165  0.63880593  0.20616011    -0.92700
O1362       O  0.57990616  0.62096999  0.10279658    -0.93000
O1363       O  0.58433853  0.58756786  0.12128851    -0.91800
C1364       C  0.56504094  0.62487934  0.22099720     1.17200
H1365       H  0.60739213  0.64744599  0.11603872     0.33200
H1366       H  0.61604281  0.58196118  0.16987236     0.44000
H1367       H  0.60377936  0.63913867  0.25581252     0.37600
H1368       H  0.66726133  0.63288017  0.19184150     0.34000
H1369       H  0.60990587  0.58514580  0.07155330     0.25800
H1370       H  0.68153374  0.58396242  0.20482955     0.31800
H1371       H  0.66687331  0.63258289  0.29175318     0.37700
H1372       H  0.58076394  0.61877131  0.07820367     0.32100
H1373       H  0.57083220  0.67065316  0.16035097     0.31000
H1374       H  0.58017958  0.67673398  0.22172611     0.32700
H1375       H  0.63806572  0.66514035  0.29395536     0.31700
H1376       H  0.58142043  0.58447038  0.14493311     0.35700
H1377       H  0.58274589  0.57422386  0.22852055     0.28400
H1378       H  0.66976612  0.66706208  0.11005670     0.32600
H1379       H  0.66801495  0.66379010  0.26387637     0.35500
H1380       H  0.58102937  0.66354416  0.12864906     0.28100
H1381       H  0.58849415  0.57747353  0.26619010     0.40900
H1382       H  0.64647452  0.57044120  0.13374734     0.31000
H1383       H  0.62903736  0.58679674  0.08617271     0.38600
H1384       H  0.61976736  0.66509876  0.27561956     0.30500
H1385       H  0.68028423  0.60271354  0.22154803     0.30500
H1386       H  0.67345212  0.66735923  0.14916567     0.30800
Zr1387     Zr  0.64172976  0.64138350  0.63344146     2.17500
O1388       O  0.65813791  0.66149843  0.59664513    -0.51600
O1389       O  0.63437941  0.63254407  0.57522495    -0.74800
O1390       O  0.67291177  0.63290568  0.62718217    -0.81500
O1391       O  0.60890087  0.67783644  0.66020560    -0.83300
O1392       O  0.67667675  0.60536475  0.64898280    -0.78900
O1393       O  0.63483877  0.67310679  0.63250346    -0.90600
O1394       O  0.61326645  0.61143185  0.57611325    -0.76500
O1395       O  0.63658778  0.61030978  0.63194484    -0.86000
O1396       O  0.61033750  0.63762862  0.63427831    -0.85700
O1397       O  0.65564310  0.63019535  0.68396467    -0.72400
O1398       O  0.63134714  0.65448163  0.68529547    -0.84600
Zr1399     Zr  0.60888837  0.60636683  0.73457200     2.26400
Zr1400     Zr  0.65028579  0.59893040  0.68188348     2.06300
Zr1401     Zr  0.60009330  0.65001312  0.68660656     2.10000
Zr1402     Zr  0.60526025  0.60653694  0.63388147     1.78800
O1403       O  0.59362311  0.67459334  0.72448772    -0.93400
O1404       O  0.61086805  0.57702117  0.61133273    -0.41200
O1405       O  0.59493104  0.61880562  0.68565326    -0.77800
O1406       O  0.61891655  0.59374098  0.68208058    -0.96500
O1407       O  0.64007286  0.61105697  0.73441038    -0.89800
O1408       O  0.61317600  0.63774656  0.73633692    -0.92700
C1409       C  0.62411628  0.62136933  0.56036320     1.01100
C1410       C  0.62229276  0.68326394  0.64291933     1.14000
C1411       C  0.68239185  0.61921759  0.63376122     1.04800
O1412       O  0.65694907  0.57385155  0.64540708    -0.94800
O1413       O  0.64382854  0.57145583  0.71066576    -0.90600
O1414       O  0.61828211  0.57509435  0.74010469    -0.83700
C1415       C  0.63115009  0.56546419  0.72901750     1.11400
O1416       O  0.66666058  0.66549146  0.73017112    -0.96800
Zr1417     Zr  0.64427120  0.64233909  0.73513994     1.88900
O1418       O  0.61607683  0.61395149  0.79312078    -0.73400
O1419       O  0.67538024  0.59347653  0.71881913    -0.52700
O1420       O  0.67266717  0.63283600  0.75766323    -0.97400
O1421       O  0.63605658  0.67041597  0.76130067    -0.54600
O1422       O  0.63757790  0.63484389  0.79269484    -0.74000
C1423       C  0.62676576  0.62460112  0.80810867     0.98400
O1424       O  0.58686158  0.58809277  0.76323946    -0.62800
O1425       O  0.57491938  0.65628897  0.65028122    -0.57600
O1426       O  0.57772209  0.61443356  0.73915797    -0.94300
O1427       O  0.57353776  0.64208663  0.71801851    -0.92700
O1428       O  0.57801005  0.61736418  0.60866148    -0.93000
O1429       O  0.58006881  0.58675777  0.64142535    -0.91800
C1430       C  0.56807141  0.62804329  0.73305399     1.17200
H1431       H  0.60492881  0.64334128  0.61512974     0.33200
H1432       H  0.61610502  0.58133610  0.68019872     0.44000
H1433       H  0.60777274  0.64283277  0.75622426     0.37600
H1434       H  0.66809584  0.63285503  0.68554712     0.34000
H1435       H  0.60118420  0.57470175  0.59516298     0.25800
H1436       H  0.68192683  0.58370312  0.70777963     0.31800
H1437       H  0.67288360  0.63729402  0.78117260     0.37700
H1438       H  0.57761157  0.61184980  0.58598881     0.32100
H1439       H  0.56775671  0.66496996  0.66310578     0.31000
H1440       H  0.58369123  0.68092745  0.71367831     0.32700
H1441       H  0.62569838  0.66773877  0.77577463     0.31700
H1442       H  0.57944708  0.58473054  0.66608432     0.35700
H1443       H  0.58508805  0.57753162  0.74879542     0.28400
H1444       H  0.66266110  0.65411496  0.57784965     0.32600
H1445       H  0.67056573  0.66807172  0.75350863     0.35500
H1446       H  0.57984931  0.66314442  0.63116399     0.44100
H1447       H  0.59273154  0.58367268  0.78382319     0.40900
H1448       H  0.64525388  0.56881306  0.63954970     0.31000
H1449       H  0.62156082  0.57833805  0.59704682     0.38600
H1450       H  0.63119495  0.67757926  0.74261254     0.30500
H1451       H  0.68314992  0.60394002  0.71605541     0.30500
H1452       H  0.66881858  0.66503128  0.60943337     0.30800
Zr1453     Zr  0.60404835  0.39260132  0.26264325     2.17500
O1454       O  0.58162429  0.41159781  0.23738813    -0.51600
O1455       O  0.60940945  0.38753945  0.20248671    -0.74800
O1456       O  0.61358939  0.42365177  0.25774686    -0.81500
O1457       O  0.56944456  0.35709921  0.28653845    -0.83300
O1458       O  0.63986173  0.42781024  0.28472561    -0.78900
O1459       O  0.57239582  0.38431177  0.26295319    -0.90600
O1460       O  0.63237978  0.36845006  0.19679508    -0.76500
O1461       O  0.63540643  0.38913001  0.25837354    -0.86000
O1462       O  0.60940511  0.36165143  0.25555233    -0.85700
O1463       O  0.61616212  0.40412768  0.31459380    -0.72400
O1464       O  0.59240816  0.37867409  0.31230225    -0.84600
Zr1465     Zr  0.64178472  0.35548915  0.35324170     2.26400
Zr1466     Zr  0.64764385  0.39987991  0.31038404     2.06300
Zr1467     Zr  0.59839053  0.34785422  0.30576963     2.10000
Zr1468     Zr  0.64065305  0.35825534  0.25206687     1.78800
O1469       O  0.57785960  0.33598663  0.34743695    -0.93400
O1470       O  0.66784218  0.36772499  0.22414117    -0.41200
O1471       O  0.62968335  0.34393475  0.30154500    -0.77800
O1472       O  0.65367505  0.36899413  0.30297200    -0.96500
O1473       O  0.63616391  0.38625765  0.36034101    -0.89800
O1474       O  0.61044008  0.35877378  0.35755656    -0.92700
C1475       C  0.62059510  0.37874873  0.18470246     1.01100
C1476       C  0.56297492  0.37097014  0.27265859     1.14000
C1477       C  0.62666980  0.43332450  0.26745803     1.04800
O1478       O  0.67201304  0.40827197  0.27334763    -0.94800
O1479       O  0.67561602  0.39326922  0.33785094    -0.90600
O1480       O  0.67246027  0.36593020  0.36084704    -0.83700
C1481       C  0.68168164  0.37981014  0.35377859     1.11400
O1482       O  0.58319408  0.41354959  0.36280790    -0.96800
Zr1483     Zr  0.60483087  0.38960947  0.36344617     1.88900
O1484       O  0.63533991  0.36027820  0.41318403    -0.73400
O1485       O  0.65366687  0.42232121  0.35298694    -0.52700
O1486       O  0.61422413  0.41569042  0.39497940    -0.97400
O1487       O  0.57593134  0.38019614  0.38430661    -0.54600
O1488       O  0.61191468  0.37882772  0.41872830    -0.74000
C1489       C  0.62377091  0.36865549  0.43089357     0.98400
O1490       O  0.66181242  0.33310549  0.37561707    -0.62800
O1491       O  0.58797155  0.32748281  0.26245508    -0.57600
O1492       O  0.63381933  0.32408930  0.35566568    -0.94300
O1493       O  0.60869707  0.31936141  0.32555072    -0.92700
O1494       O  0.63188652  0.33071889  0.22479700    -0.93000
O1495       O  0.66428375  0.33639463  0.25271484    -0.91800
C1496       C  0.62169880  0.31394392  0.34351045     1.17200
H1497       H  0.60350631  0.35703016  0.23580982     0.33200
H1498       H  0.66618198  0.36684079  0.30039814     0.44000
H1499       H  0.60580122  0.35208260  0.37636359     0.37600
H1500       H  0.61319829  0.41641011  0.31798811     0.34000
H1501       H  0.66801290  0.36121226  0.20242817     0.25800
H1502       H  0.66096581  0.43130907  0.34125109     0.31800
H1503       H  0.60892598  0.41430362  0.41771068     0.37700
H1504       H  0.63750524  0.33117531  0.20220565     0.32100
H1505       H  0.59886348  0.32280906  0.25180886     0.31000
H1506       H  0.57237861  0.32561574  0.33627147     0.32700
H1507       H  0.57531945  0.38463498  0.40778857     0.31700
H1508       H  0.66437015  0.33191152  0.27617993     0.35700
H1509       H  0.67185802  0.33241309  0.35956530     0.28400
H1510       H  0.58740817  0.41730796  0.21775608     0.32600
H1511       H  0.57933318  0.41522289  0.38650527     0.35500
H1512       H  0.58291581  0.31734724  0.27501783     0.28100
H1513       H  0.66682980  0.33819669  0.39657397     0.40900
H1514       H  0.66665322  0.40930288  0.25067370     0.31000
H1515       H  0.66567649  0.38017738  0.21768427     0.38600
H1516       H  0.57677256  0.36718899  0.38657552     0.30500
H1517       H  0.64215302  0.42818782  0.35690195     0.30500
H1518       H  0.57959164  0.42127941  0.25382178     0.30800
Zr1519     Zr  0.64505822  0.35899761  0.85848765     2.17500
O1520       O  0.66414957  0.33782720  0.88716923    -0.51600
O1521       O  0.63757057  0.36722856  0.91659386    -0.74800
O1522       O  0.67557249  0.36951408  0.86577999    -0.81500
O1523       O  0.61054768  0.32266478  0.84346130    -0.83300
O1524       O  0.67928589  0.39522101  0.83707923    -0.78900
O1525       O  0.63735682  0.32794358  0.86735120    -0.90600
O1526       O  0.61746291  0.38948826  0.91647129    -0.76500
O1527       O  0.63960078  0.39003278  0.85838249    -0.86000
O1528       O  0.61371796  0.36244830  0.86050023    -0.85700
O1529       O  0.65787950  0.36934614  0.80630547    -0.72400
O1530       O  0.63372029  0.34446408  0.80901539    -0.84600
Zr1531     Zr  0.60930074  0.39071444  0.75796474     2.26400
Zr1532     Zr  0.65188819  0.40050416  0.80626232     2.06300
Zr1533     Zr  0.60238289  0.34861394  0.81068761     2.10000
Zr1534     Zr  0.60821521  0.39336407  0.85902206     1.78800
O1535       O  0.59719623  0.32314383  0.77429272    -0.93400
O1536       O  0.61359212  0.42330115  0.87945967    -0.41200
O1537       O  0.59656192  0.37967794  0.80950198    -0.77800
O1538       O  0.62040631  0.40499080  0.80819972    -0.96500
O1539       O  0.64061018  0.38682660  0.75596581    -0.89800
O1540       O  0.61437583  0.35951829  0.75869520    -0.92700
C1541       C  0.62779042  0.37874934  0.93153437     1.01100
C1542       C  0.62403391  0.31790473  0.86089140     1.14000
C1543       C  0.68501650  0.38279366  0.85622210     1.04800
O1544       O  0.65662162  0.42660978  0.84124645    -0.94800
O1545       O  0.64439449  0.42645575  0.77369130    -0.90600
O1546       O  0.61772274  0.42206808  0.74883178    -0.83700
C1547       C  0.63104104  0.43195232  0.75675490     1.11400
O1548       O  0.67070301  0.33570224  0.76298152    -0.96800
Zr1549     Zr  0.64563757  0.35573732  0.75725635     1.88900
O1550       O  0.61684625  0.38245115  0.69988653    -0.73400
O1551       O  0.67647276  0.40752240  0.76866125    -0.52700
O1552       O  0.67160229  0.36738109  0.72805671    -0.97400
O1553       O  0.63943339  0.32586687  0.73718769    -0.54600
O1554       O  0.63652777  0.35986811  0.69962634    -0.74000
C1555       C  0.62628222  0.37073726  0.68465336     0.98400
O1556       O  0.58626639  0.40708536  0.72853284    -0.62800
O1557       O  0.57707683  0.34217421  0.84697329    -0.57600
O1558       O  0.57837315  0.38083461  0.75310407    -0.94300
O1559       O  0.57481324  0.35530163  0.78224673    -0.92700
O1560       O  0.58181711  0.38247204  0.88769735    -0.93000
O1561       O  0.58286138  0.41286411  0.85237450    -0.91800
C1562       C  0.56889318  0.36765194  0.76323959     1.17200
H1563       H  0.60884013  0.35709640  0.88060219     0.33200
H1564       H  0.61747310  0.41738958  0.80913346     0.44000
H1565       H  0.60866017  0.35376726  0.73985087     0.37600
H1566       H  0.67040578  0.36700100  0.80496758     0.34000
H1567       H  0.60742312  0.42391238  0.90151307     0.25800
H1568       H  0.68316194  0.41692213  0.78054387     0.31800
H1569       H  0.67138047  0.36187410  0.70536782     0.37700
H1570       H  0.58105566  0.38953461  0.90872552     0.32100
H1571       H  0.57370563  0.32985735  0.84132621     0.31000
H1572       H  0.58863105  0.31572653  0.78689604     0.32700
H1573       H  0.63842454  0.31863573  0.75792104     0.31700
H1574       H  0.58302162  0.41617431  0.82820603     0.35700
H1575       H  0.58471684  0.41835306  0.74098031     0.28400
H1576       H  0.66896610  0.34412593  0.90707439     0.32600
H1577       H  0.67412841  0.33242533  0.73964993     0.35500
H1578       H  0.58186079  0.34149066  0.87014530     0.28100
H1579       H  0.59153990  0.41039784  0.70654349     0.40900
H1580       H  0.65889517  0.42195371  0.86415918     0.31000
H1581       H  0.62632656  0.42354105  0.88518663     0.38600
H1582       H  0.62720808  0.32639595  0.72839058     0.30500
H1583       H  0.68427612  0.39702776  0.76949285     0.30500
H1584       H  0.67441396  0.33591011  0.87200526     0.30800
Zr1585     Zr  0.14203902  0.64364358  0.10327204     2.17500
O1586       O  0.16335352  0.66156564  0.13443185    -0.51600
O1587       O  0.13501253  0.63448571  0.16112742    -0.74800
O1588       O  0.13180105  0.67426978  0.11222134    -0.81500
O1589       O  0.17919711  0.61161130  0.07720274    -0.83300
O1590       O  0.10554400  0.67775540  0.08539837    -0.78900
O1591       O  0.17355984  0.63689673  0.10651795    -0.90600
O1592       O  0.11577931  0.61139496  0.16000033    -0.76500
O1593       O  0.11094885  0.63846697  0.10304906    -0.86000
O1594       O  0.13861259  0.61219564  0.10220953    -0.85700
O1595       O  0.13153227  0.65750020  0.05240338    -0.72400
O1596       O  0.15604582  0.63303783  0.05261798    -0.84600
Zr1597     Zr  0.10943900  0.61032066  0.00018728     2.26400
Zr1598     Zr  0.10033501  0.65160504  0.05177674     2.06300
Zr1599     Zr  0.15178966  0.60175489  0.05082684     2.10000
Zr1600     Zr  0.10757103  0.60711566  0.10167668     1.78800
O1601       O  0.17469545  0.59509229  0.00934824    -0.93400
O1602       O  0.07999239  0.61598919  0.12879760    -0.41200
O1603       O  0.12063587  0.59648530  0.05050833    -0.77800
O1604       O  0.09557535  0.62023356  0.05192664    -0.96500
O1605       O  0.11392548  0.64152113  0.00065003    -0.89800
O1606       O  0.14074955  0.61509042  0.00033713    -0.92700
C1607       C  0.12568662  0.62243021  0.17562480     1.01100
C1608       C  0.18403537  0.62475804  0.09568748     1.14000
C1609       C  0.11836213  0.68362563  0.10337439     1.04800
O1610       O  0.07395663  0.65830518  0.08475745    -0.94800
O1611       O  0.07366633  0.64548246  0.01974688    -0.90600
O1612       O  0.07795687  0.61890591  0.99421764    -0.83700
C1613       C  0.06814708  0.63221486  0.00244521     1.11400
O1614       O  0.16824776  0.66821130  0.01330937    -0.96800
Zr1615     Zr  0.14514592  0.64633861  0.00241097     1.88900
O1616       O  0.11835917  0.61912091  0.94289310    -0.73400
O1617       O  0.09693640  0.67669177  0.01382795    -0.52700
O1618       O  0.13732657  0.67532842  0.98025136    -0.97400
O1619       O  0.17328802  0.63785691  0.97680142    -0.54600
O1620       O  0.13811519  0.64177854  0.94415808    -0.74000
C1621       C  0.12823037  0.63080008  0.92852768     0.98400
O1622       O  0.09266902  0.59111017  0.96230007    -0.62800
O1623       O  0.16178457  0.57745274  0.08636033    -0.57600
O1624       O  0.11704022  0.57871081  0.99653158    -0.94300
O1625       O  0.14230292  0.57386420  0.02575275    -0.92700
O1626       O  0.11499093  0.57822954  0.12463499    -0.93000
O1627       O  0.08527065  0.58437426  0.09210396    -0.91800
C1628       C  0.12946490  0.56847250  0.00717889     1.17200
H1629       H  0.14422622  0.60674745  0.12141582     0.33200
H1630       H  0.08314749  0.61738789  0.05320553     0.44000
H1631       H  0.14619504  0.60984700  0.98063823     0.37600
H1632       H  0.13399840  0.67001428  0.05186647     0.34000
H1633       H  0.07845990  0.60756108  0.14769124     0.25800
H1634       H  0.08680663  0.68341667  0.02317350     0.31800
H1635       H  0.14503048  0.67700685  0.96025086     0.37700
H1636       H  0.12679392  0.57550456  0.11507428     0.32100
H1637       H  0.17347793  0.57410031  0.07703824     0.31000
H1638       H  0.18374610  0.58836399  0.02193778     0.32700
H1639       H  0.17035585  0.62865317  0.95990590     0.31700
H1640       H  0.08733621  0.58040287  0.06858508     0.35700
H1641       H  0.08247183  0.58670900  0.97563509     0.28400
H1642       H  0.15734666  0.66482345  0.15577804     0.32600
H1643       H  0.17303827  0.67157712  0.99092876     0.35500
H1644       H  0.16449856  0.58286766  0.10851820     0.28100
H1645       H  0.08746364  0.59896206  0.94499352     0.40900
H1646       H  0.06868196  0.64661324  0.08990223     0.31000
H1647       H  0.08270182  0.62741227  0.13992309     0.38600
H1648       H  0.17963071  0.63142922  0.99482448     0.30500
H1649       H  0.10735055  0.68432410  0.01812348     0.30500
H1650       H  0.16470596  0.67277268  0.12177923     0.30800
Zr1651     Zr  0.14576992  0.64356788  0.59548598     2.17500
O1652       O  0.16972638  0.66474885  0.60438794    -0.51600
O1653       O  0.14086607  0.64059895  0.65604608    -0.74800
O1654       O  0.13512500  0.67407413  0.60394155    -0.81500
O1655       O  0.18002851  0.60705851  0.57839692    -0.83300
O1656       O  0.10855068  0.67675758  0.57791910    -0.78900
O1657       O  0.17603454  0.63345107  0.60478050    -0.90600
O1658       O  0.11992285  0.61945767  0.66336315    -0.76500
O1659       O  0.11480399  0.63876297  0.60229680    -0.86000
O1660       O  0.14198571  0.61242910  0.60304165    -0.85700
O1661       O  0.13274273  0.65419035  0.54417744    -0.72400
O1662       O  0.15709713  0.62927532  0.54568192    -0.84600
Zr1663     Zr  0.10786859  0.60422601  0.50808188     2.26400
Zr1664     Zr  0.10166917  0.64879927  0.55084922     2.06300
Zr1665     Zr  0.15228198  0.59816055  0.55268526     2.10000
Zr1666     Zr  0.11116755  0.60768514  0.60926661     1.78800
O1667       O  0.17611593  0.59002674  0.51419631    -0.93400
O1668       O  0.08339550  0.61491638  0.63738745    -0.41200
O1669       O  0.12122014  0.59328781  0.55896517    -0.77800
O1670       O  0.09675511  0.61770529  0.55925637    -0.96500
O1671       O  0.11239937  0.63514984  0.50016413    -0.89800
O1672       O  0.13901013  0.60843287  0.50166724    -0.92700
C1673       C  0.13082072  0.63100677  0.67474801     1.01100
C1674       C  0.18563214  0.62010891  0.59618629     1.14000
C1675       C  0.12148115  0.68312481  0.59505742     1.04800
O1676       O  0.07722917  0.65769470  0.58728216    -0.94800
O1677       O  0.07370479  0.64081829  0.52541312    -0.90600
O1678       O  0.07657772  0.61303560  0.50429326    -0.83700
C1679       C  0.06737081  0.62688462  0.51143533     1.11400
O1680       O  0.16563804  0.66300750  0.49353280    -0.96800
Zr1681     Zr  0.14355828  0.63943792  0.49500769     1.88900
O1682       O  0.11345007  0.60850933  0.44752056    -0.73400
O1683       O  0.09580029  0.67138398  0.50859652    -0.52700
O1684       O  0.13238655  0.66536638  0.46545872    -0.97400
O1685       O  0.17158940  0.63051861  0.46959896    -0.54600
O1686       O  0.13580018  0.62823766  0.44032607    -0.74000
C1687       C  0.12431372  0.61733712  0.42897506     0.98400
O1688       O  0.08890780  0.58158403  0.48300140    -0.62800
O1689       O  0.15858149  0.57450185  0.59257219    -0.57600
O1690       O  0.11590606  0.57284990  0.50798091    -0.94300
O1691       O  0.14372710  0.56972980  0.52846111    -0.92700
O1692       O  0.12351928  0.58216581  0.63827435    -0.93000
O1693       O  0.09006792  0.58339320  0.61345339    -0.91800
C1694       C  0.12963004  0.56346572  0.51482837     1.17200
H1695       H  0.14839720  0.60833608  0.62257524     0.33200
H1696       H  0.08441759  0.61513932  0.56317386     0.44000
H1697       H  0.14355983  0.60177189  0.48271199     0.37600
H1698       H  0.13513602  0.66662828  0.54106960     0.34000
H1699       H  0.08453069  0.60993429  0.66037523     0.25800
H1700       H  0.08603227  0.67848018  0.51832786     0.31800
H1701       H  0.13539788  0.66339143  0.44141218     0.37700
H1702       H  0.12402162  0.57271161  0.62096207     0.32100
H1703       H  0.16772650  0.56719082  0.58132909     0.31000
H1704       H  0.18329913  0.58138171  0.52691678     0.32700
H1705       H  0.16909570  0.61913826  0.45813665     0.31700
H1706       H  0.08674449  0.58080387  0.58979898     0.35700
H1707       H  0.07929176  0.57941928  0.49953596     0.28400
H1708       H  0.16728288  0.67035936  0.62651083     0.32600
H1709       H  0.16744033  0.66575814  0.46933577     0.35500
H1710       H  0.16480563  0.58023582  0.61162858     0.28100
H1711       H  0.08309974  0.58727721  0.46347417     0.40900
H1712       H  0.07108888  0.64651805  0.59307744     0.31000
H1713       H  0.08390915  0.62788310  0.64081570     0.38600
H1714       H  0.17917872  0.62726776  0.48893311     0.30500
H1715       H  0.10620380  0.67935149  0.50938449     0.30500
H1716       H  0.16794973  0.67422216  0.58750641     0.30800
Zr1717     Zr  0.10338969  0.39161900  0.47100009     2.17500
O1718       O  0.08422925  0.41510682  0.49236954    -0.51600
O1719       O  0.11100034  0.38714792  0.53032596    -0.74800
O1720       O  0.07302968  0.38167507  0.48360592    -0.81500
O1721       O  0.13734179  0.42675262  0.44213499    -0.83300
O1722       O  0.06864106  0.35497283  0.45841104    -0.78900
O1723       O  0.11268689  0.42258287  0.47430560    -0.90600
O1724       O  0.13335154  0.36722215  0.53343357    -0.76500
O1725       O  0.10842302  0.36072394  0.47737264    -0.86000
O1726       O  0.13474470  0.38793619  0.47147030    -0.85700
O1727       O  0.08993758  0.37813953  0.42217145    -0.72400
O1728       O  0.11414351  0.40258891  0.41775635    -0.84600
Zr1729     Zr  0.13740896  0.35318821  0.37617023     2.26400
Zr1730     Zr  0.09550521  0.34707921  0.42861130     2.06300
Zr1731     Zr  0.14542583  0.39824591  0.41792066     2.10000
Zr1732     Zr  0.13968417  0.35701142  0.47719187     1.78800
O1733       O  0.14965287  0.41909512  0.37182251    -0.93400
O1734       O  0.13182663  0.33050755  0.50888700    -0.41200
O1735       O  0.15068227  0.36726054  0.42425784    -0.77800
O1736       O  0.12688448  0.34233245  0.42987537    -0.96500
O1737       O  0.10616268  0.35724888  0.37496607    -0.89800
O1738       O  0.13274345  0.38420210  0.36956459    -0.92700
C1739       C  0.12244080  0.37808717  0.54680789     1.01100
C1740       C  0.12507795  0.43233777  0.46197689     1.14000
C1741       C  0.06331966  0.36825222  0.47588553     1.04800
O1742       O  0.08887210  0.32437879  0.47034178    -0.94800
O1743       O  0.10242587  0.31858471  0.40381598    -0.90600
O1744       O  0.12770365  0.32220254  0.37322632    -0.83700
C1745       C  0.11513226  0.31267015  0.38547048     1.11400
O1746       O  0.07924971  0.41151980  0.37345637    -0.96800
Zr1747     Zr  0.10150371  0.38827659  0.36954141     1.88900
O1748       O  0.13100196  0.35918025  0.31681836    -0.73400
O1749       O  0.07102860  0.33902857  0.39178557    -0.52700
O1750       O  0.07313140  0.37745975  0.34895981    -0.97400
O1751       O  0.10915048  0.41475163  0.33751902    -0.54600
O1752       O  0.10804287  0.37833365  0.31301995    -0.74000
C1753       C  0.11975371  0.36823880  0.29984790     0.98400
O1754       O  0.15821659  0.33345149  0.34755520    -0.62800
O1755       O  0.17083044  0.40969159  0.44887540    -0.57600
O1756       O  0.16894240  0.36037628  0.37237216    -0.94300
O1757       O  0.17339213  0.38770194  0.39508704    -0.92700
O1758       O  0.16828733  0.36734675  0.49738232    -0.93000
O1759       O  0.16213754  0.33396151  0.47447911    -0.91800
C1760       C  0.17889142  0.37353020  0.38049323     1.17200
H1761       H  0.14011337  0.39454237  0.48966763     0.33200
H1762       H  0.12977776  0.33004894  0.43327913     0.44000
H1763       H  0.13822595  0.38852061  0.34912101     0.37600
H1764       H  0.07744286  0.38063960  0.42115306     0.34000
H1765       H  0.13926647  0.33098810  0.52939799     0.25800
H1766       H  0.06399513  0.33040297  0.40501393     0.31800
H1767       H  0.07130885  0.38358554  0.32719949     0.37700
H1768       H  0.17093321  0.35979681  0.51711813     0.32100
H1769       H  0.17335404  0.42136312  0.43860716     0.31000
H1770       H  0.16212213  0.42297112  0.37384397     0.32700
H1771       H  0.11924543  0.41133855  0.32293758     0.31700
H1772       H  0.16270027  0.33056791  0.45035083     0.35700
H1773       H  0.16087202  0.32385451  0.36374216     0.28400
H1774       H  0.07966237  0.41088190  0.51439147     0.32600
H1775       H  0.07514836  0.41361444  0.35009594     0.35500
H1776       H  0.16631732  0.41246849  0.47175929     0.28100
H1777       H  0.15152916  0.32770516  0.32905960     0.40900
H1778       H  0.08880852  0.33064476  0.49230842     0.31000
H1779       H  0.11967266  0.33270654  0.51724727     0.38600
H1780       H  0.11431917  0.42293349  0.35437309     0.30500
H1781       H  0.06351134  0.34972470  0.39084708     0.30500
H1782       H  0.07382741  0.41532039  0.47724621     0.30800
Zr1783     Zr  0.14477402  0.35902173  0.87445430     2.17500
O1784       O  0.16530319  0.34217927  0.83919818    -0.51600
O1785       O  0.13782720  0.36630416  0.81553377    -0.74800
O1786       O  0.13780988  0.32714869  0.87135089    -0.81500
O1787       O  0.18007219  0.39247695  0.90506228    -0.83300
O1788       O  0.11122870  0.32189543  0.89658139    -0.78900
O1789       O  0.17641084  0.36663990  0.87640626    -0.90600
O1790       O  0.11653888  0.38738385  0.81396338    -0.76500
O1791       O  0.11339154  0.36213986  0.87256445    -0.86000
O1792       O  0.13924334  0.39019084  0.87157804    -0.85700
O1793       O  0.13402054  0.34613808  0.92638004    -0.72400
O1794       O  0.15683800  0.37207380  0.92466446    -0.84600
Zr1795     Zr  0.10819151  0.39324167  0.97199340     2.26400
Zr1796     Zr  0.10249871  0.34953566  0.92419799     2.06300
Zr1797     Zr  0.15090304  0.40296198  0.92230861     2.10000
Zr1798     Zr  0.10783286  0.39321084  0.87094613     1.78800
O1799       O  0.17320359  0.41566543  0.95942282    -0.93400
O1800       O  0.08121646  0.38249574  0.84291281    -0.41200
O1801       O  0.11947216  0.40631282  0.92099935    -0.77800
O1802       O  0.09585380  0.38062798  0.92112995    -0.96500
O1803       O  0.11440914  0.36238279  0.97467263    -0.89800
O1804       O  0.13970928  0.39064032  0.97388108    -0.92700
C1805       C  0.12760891  0.37705007  0.79974305     1.01100
C1806       C  0.18615956  0.37910156  0.88861085     1.14000
C1807       C  0.12519070  0.31674643  0.88071751     1.04800
O1808       O  0.07863249  0.34018051  0.88705871    -0.94800
O1809       O  0.07455300  0.35564409  0.95272393    -0.90600
O1810       O  0.07764867  0.38208343  0.97950337    -0.83700
C1811       C  0.06841529  0.36849439  0.97056508     1.11400
O1812       O  0.17087633  0.33981104  0.96836314    -0.96800
Zr1813     Zr  0.14580093  0.35972525  0.97563468     1.88900
O1814       O  0.11571394  0.38626975  0.03078575    -0.73400
O1815       O  0.09780527  0.32636348  0.96590431    -0.52700
O1816       O  0.13894194  0.33087062  0.99976561    -0.97400
O1817       O  0.17235278  0.37080792  0.00351598    -0.54600
O1818       O  0.13665459  0.36485397  0.03251842    -0.74000
C1819       C  0.12581647  0.37544920  0.04670013     0.98400
O1820       O  0.08892450  0.41394502  0.00171329    -0.62800
O1821       O  0.15877129  0.42448866  0.87895152    -0.57600
O1822       O  0.11421310  0.42538032  0.97365923    -0.94300
O1823       O  0.14006664  0.43062331  0.94602465    -0.92700
O1824       O  0.11380112  0.42228978  0.84709606    -0.93000
O1825       O  0.08322191  0.41384944  0.87524265    -0.91800
C1826       C  0.12650991  0.43586368  0.96297436     1.17200
H1827       H  0.14477366  0.39543779  0.85198862     0.33200
H1828       H  0.08332249  0.38273701  0.91918551     0.44000
H1829       H  0.14452292  0.39679902  0.99317783     0.37600
H1830       H  0.13743269  0.33397712  0.92947076     0.34000
H1831       H  0.08037087  0.38960095  0.82200946     0.25800
H1832       H  0.08820088  0.31897133  0.95639488     0.31800
H1833       H  0.14457492  0.33088107  0.02229164     0.37700
H1834       H  0.12623164  0.42487581  0.85312291     0.32100
H1835       H  0.16239689  0.43522384  0.89152812     0.31000
H1836       H  0.17853720  0.42544084  0.94622998     0.32700
H1837       H  0.16809657  0.37867765  0.02180277     0.31700
H1838       H  0.08559384  0.42068388  0.89609651     0.35700
H1839       H  0.07788994  0.41479321  0.98843517     0.28400
H1840       H  0.15798402  0.33613327  0.82196684     0.32600
H1841       H  0.17415388  0.33599642  0.99139790     0.35500
H1842       H  0.16986774  0.42002201  0.86872368     0.28100
H1843       H  0.08553093  0.40798879  0.02300493     0.40900
H1844       H  0.07115419  0.35082128  0.88436148     0.31000
H1845       H  0.08424355  0.37045127  0.83493661     0.38600
H1846       H  0.17781634  0.37891598  0.98685695     0.30500
H1847       H  0.10848333  0.31883322  0.96443333     0.30500
H1848       H  0.16994072  0.33257878  0.85363837     0.30800
Zr1849     Zr  0.38806402  0.39092434  0.26391868     2.17500
O1850       O  0.40529563  0.41286324  0.23275108    -0.51600
O1851       O  0.38131990  0.38315252  0.20513896    -0.74800
O1852       O  0.41959501  0.38294353  0.25859055    -0.81500
O1853       O  0.35280216  0.42595929  0.28806943    -0.83300
O1854       O  0.42429420  0.35621619  0.28321075    -0.78900
O1855       O  0.37900748  0.42211619  0.26116216    -0.90600
O1856       O  0.35969033  0.36230291  0.20356642    -0.76500
O1857       O  0.38417844  0.35963416  0.26164358    -0.86000
O1858       O  0.35685647  0.38589617  0.26216576    -0.85700
O1859       O  0.40120913  0.37994861  0.31523151    -0.72400
O1860       O  0.37593421  0.40365272  0.31456577    -0.84600
Zr1861     Zr  0.35378917  0.35508945  0.36202426     2.26400
Zr1862     Zr  0.39693845  0.34845584  0.31274511     2.06300
Zr1863     Zr  0.34488038  0.39786655  0.31341585     2.10000
Zr1864     Zr  0.35301249  0.35463604  0.26091882     1.78800
O1865       O  0.33728457  0.42008865  0.35560364    -0.93400
O1866       O  0.36216528  0.32675555  0.23537580    -0.41200
O1867       O  0.34080654  0.36660238  0.31151332    -0.77800
O1868       O  0.36570292  0.34242008  0.31065956    -0.96500
O1869       O  0.38486317  0.36061342  0.36384630    -0.89800
O1870       O  0.35728854  0.38647811  0.36445439    -0.92700
C1871       C  0.37053363  0.37291368  0.18930863     1.01100
C1872       C  0.36589975  0.43182978  0.27075358     1.14000
C1873       C  0.42968946  0.36996631  0.26706380     1.04800
O1874       O  0.40365558  0.32432159  0.27398486    -0.94800
O1875       O  0.39074134  0.32117057  0.34343980    -0.90600
O1876       O  0.36358362  0.32431890  0.36761986    -0.83700
C1877       C  0.37734150  0.31513780  0.35990380     1.11400
O1878       O  0.40990295  0.41587350  0.35993977    -0.96800
Zr1879     Zr  0.38835135  0.39194719  0.36513187     1.88900
O1880       O  0.36083767  0.36223859  0.42113100    -0.73400
O1881       O  0.42160180  0.34257928  0.35050676    -0.52700
O1882       O  0.41680176  0.38356491  0.38907233    -0.97400
O1883       O  0.37898229  0.41931878  0.39250350    -0.54600
O1884       O  0.38218278  0.38334233  0.42205766    -0.74000
C1885       C  0.37168499  0.37253379  0.43670586     0.98400
O1886       O  0.33288570  0.33695779  0.39396170    -0.62800
O1887       O  0.32030028  0.40606470  0.27697035    -0.57600
O1888       O  0.32177418  0.36108412  0.36192657    -0.94300
O1889       O  0.31700166  0.38749982  0.33626541    -0.92700
O1890       O  0.32460199  0.36233035  0.23622819    -0.93000
O1891       O  0.33023663  0.33195615  0.26614309    -0.91800
C1892       C  0.31159754  0.37374503  0.35219431     1.17200
H1893       H  0.35157533  0.39149561  0.24276279     0.33200
H1894       H  0.36334647  0.32992994  0.30846546     0.44000
H1895       H  0.35139568  0.39133831  0.38404233     0.37600
H1896       H  0.41353045  0.38303348  0.31749602     0.34000
H1897       H  0.35525044  0.32590326  0.21425007     0.25800
H1898       H  0.42916832  0.33409025  0.33805140     0.31800
H1899       H  0.41683405  0.38860778  0.41215668     0.37700
H1900       H  0.31934902  0.37091586  0.25225787     0.32100
H1901       H  0.31438452  0.41597946  0.28880188     0.31000
H1902       H  0.32933000  0.42839949  0.34378876     0.32700
H1903       H  0.36932114  0.41586984  0.40809870     0.31700
H1904       H  0.32538159  0.33358388  0.28918394     0.35700
H1905       H  0.33021398  0.32660650  0.37946357     0.28400
H1906       H  0.41177950  0.40627580  0.21499882     0.32600
H1907       H  0.41369351  0.41866892  0.38325406     0.35500
H1908       H  0.32574361  0.41149356  0.25671995     0.28100
H1909       H  0.33966594  0.33211709  0.41317929     0.40900
H1910       H  0.39385101  0.31574845  0.27692731     0.31000
H1911       H  0.37447111  0.32884906  0.22771479     0.38600
H1912       H  0.37303163  0.42610705  0.37447816     0.30500
H1913       H  0.42853465  0.35370558  0.35090998     0.30500
H1914       H  0.41450941  0.41709898  0.24853981     0.30800
Zr1915     Zr  0.39614936  0.39454866  0.76682820     2.17500
O1916       O  0.41605833  0.41787512  0.74730479    -0.51600
O1917       O  0.39051160  0.38970622  0.70675690    -0.74800
O1918       O  0.42690058  0.38461469  0.75866772    -0.81500
O1919       O  0.36236562  0.42993140  0.79397455    -0.83300
O1920       O  0.43029225  0.35709391  0.78081488    -0.78900
O1921       O  0.38781319  0.42571817  0.76413515    -0.90600
O1922       O  0.36947636  0.36834979  0.70142196    -0.76500
O1923       O  0.39101260  0.36366187  0.76009489    -0.86000
O1924       O  0.36478805  0.39092401  0.76254192    -0.85700
O1925       O  0.40822527  0.38132454  0.81695878    -0.72400
O1926       O  0.38360017  0.40574003  0.81839040    -0.84600
Zr1927     Zr  0.35940559  0.35676811  0.85790258     2.26400
Zr1928     Zr  0.40273505  0.35029694  0.81001249     2.06300
Zr1929     Zr  0.35233865  0.40134270  0.81451354     2.10000
Zr1930     Zr  0.35970014  0.36004025  0.75698185     1.78800
O1931       O  0.34302025  0.42412894  0.85425676    -0.93400
O1932       O  0.36648241  0.33241347  0.72794604    -0.41200
O1933       O  0.34684019  0.37031067  0.80860673    -0.77800
O1934       O  0.37139693  0.34569027  0.80547836    -0.96500
O1935       O  0.39058194  0.36097519  0.86217985    -0.89800
O1936       O  0.36387997  0.38784328  0.86438514    -0.92700
C1937       C  0.38056972  0.37941968  0.68923894     1.01100
C1938       C  0.37547749  0.43556771  0.77627522     1.14000
C1939       C  0.43620192  0.37080436  0.76536474     1.04800
O1940       O  0.41016333  0.32648379  0.77101515    -0.94800
O1941       O  0.39466485  0.32221358  0.83496221    -0.90600
O1942       O  0.36839249  0.32570799  0.86230764    -0.83700
C1943       C  0.38145802  0.31623100  0.85192755     1.11400
O1944       O  0.41990057  0.41271941  0.86618021    -0.96800
Zr1945     Zr  0.39505100  0.39205765  0.86786949     1.88900
O1946       O  0.36415908  0.36283849  0.91783743    -0.73400
O1947       O  0.42616290  0.34308323  0.84970668    -0.52700
O1948       O  0.42085909  0.38085116  0.89767968    -0.97400
O1949       O  0.38730008  0.42115975  0.88995802    -0.54600
O1950       O  0.38466384  0.38456882  0.92364781    -0.74000
C1951       C  0.37348773  0.37351594  0.93575372     0.98400
O1952       O  0.34052340  0.33406367  0.88309931    -0.62800
O1953       O  0.32980618  0.40947966  0.77356545    -0.57600
O1954       O  0.32819428  0.36517273  0.86188980    -0.94300
O1955       O  0.32447305  0.39273635  0.84056440    -0.92700
O1956       O  0.33317042  0.37130819  0.72981814    -0.93000
O1957       O  0.33537264  0.33888443  0.75918133    -0.91800
C1958       C  0.31865045  0.37881187  0.85543856     1.17200
H1959       H  0.36012187  0.39741836  0.74357912     0.33200
H1960       H  0.36855563  0.33338263  0.80196344     0.44000
H1961       H  0.35771939  0.39242204  0.88392398     0.37600
H1962       H  0.42070962  0.38367318  0.81928803     0.34000
H1963       H  0.35935759  0.33275941  0.70702617     0.25800
H1964       H  0.43357738  0.33430120  0.83767265     0.31800
H1965       H  0.41983160  0.38561298  0.92089978     0.37700
H1966       H  0.33315132  0.36576780  0.70715033     0.32100
H1967       H  0.32135651  0.39945228  0.77356732     0.31000
H1968       H  0.33519682  0.43198795  0.84106412     0.32700
H1969       H  0.39326746  0.42196081  0.91209620     0.31700
H1970       H  0.33378598  0.33634073  0.78351343     0.35700
H1971       H  0.33452011  0.33974077  0.90254582     0.28400
H1972       H  0.42163339  0.41334808  0.72635134     0.32600
H1973       H  0.42285190  0.41540006  0.88997857     0.35500
H1974       H  0.32323892  0.41930757  0.78436944     0.28100
H1975       H  0.33104289  0.33166038  0.86649662     0.40900
H1976       H  0.40864835  0.33165477  0.74827231     0.31000
H1977       H  0.37884815  0.33381078  0.72007692     0.38600
H1978       H  0.37454230  0.42040084  0.89548620     0.30500
H1979       H  0.43359334  0.35387222  0.85076890     0.30500
H1980       H  0.42573219  0.41848179  0.76406146     0.30800
Zr1981     Zr  0.35704179  0.64117767  0.13399178     2.17500
O1982       O  0.33485507  0.66131778  0.11132944    -0.51600
O1983       O  0.36235019  0.63404420  0.07469688    -0.74800
O1984       O  0.36852453  0.67120608  0.12317959    -0.81500
O1985       O  0.32026073  0.60903825  0.16279209    -0.83300
O1986       O  0.39541660  0.67423419  0.14768838    -0.78900
O1987       O  0.32535306  0.63402174  0.13274949    -0.90600
O1988       O  0.38555945  0.61504431  0.07185003    -0.76500
O1989       O  0.38784609  0.63497230  0.12880622    -0.86000
O1990       O  0.35951100  0.60965721  0.13205925    -0.85700
O1991       O  0.37051826  0.65402727  0.18332690    -0.72400
O1992       O  0.34492990  0.63005348  0.18585884    -0.84600
Zr1993     Zr  0.39235249  0.60520916  0.22907319     2.26400
Zr1994     Zr  0.40138000  0.64711075  0.17831587     2.06300
Zr1995     Zr  0.34824615  0.59861081  0.18471683     2.10000
Zr1996     Zr  0.39027847  0.60357954  0.12777695     1.78800
O1997       O  0.32539552  0.59129409  0.22598316    -0.93400
O1998       O  0.41968498  0.60656504  0.10303189    -0.41200
O1999       O  0.37900877  0.59235059  0.17991419    -0.77800
O2000       O  0.40472299  0.61553625  0.17627935    -0.96500
O2001       O  0.38948032  0.63655977  0.23058015    -0.89800
O2002       O  0.36150057  0.61104248  0.23420186    -0.92700
C2003       C  0.37411784  0.62524967  0.05837953     1.01100
C2004       C  0.31494972  0.62199980  0.14467023     1.14000
C2005       C  0.38247293  0.68030442  0.13038320     1.04800
O2006       O  0.42615533  0.65111318  0.13956509    -0.94800
O2007       O  0.42850216  0.63969602  0.20762098    -0.90600
O2008       O  0.42354862  0.61316505  0.23282886    -0.83700
C2009       C  0.43361353  0.62606629  0.22417111     1.11400
O2010       O  0.33725650  0.66612416  0.22545413    -0.96800
Zr2011     Zr  0.35861234  0.64246980  0.23445948     1.88900
O2012       O  0.38718048  0.61343764  0.28826898    -0.73400
O2013       O  0.40916417  0.67172088  0.21520901    -0.52700
O2014       O  0.36895042  0.66987691  0.26032091    -0.97400
O2015       O  0.33099010  0.63539943  0.26340445    -0.54600
O2016       O  0.36772664  0.63612947  0.29093395    -0.74000
C2017       C  0.37809812  0.62497247  0.30472478     0.98400
O2018       O  0.41077902  0.58400917  0.25897806    -0.62800
O2019       O  0.33860678  0.57504880  0.14686391    -0.57600
O2020       O  0.38393791  0.57385850  0.23358927    -0.94300
O2021       O  0.35706669  0.57040024  0.20919757    -0.92700
O2022       O  0.37659630  0.57890986  0.09796248    -0.93000
O2023       O  0.40787507  0.57672721  0.13189032    -0.91800
C2024       C  0.37057174  0.56428166  0.22503065     1.17200
H2025       H  0.35303941  0.60487356  0.11313019     0.33200
H2026       H  0.41695951  0.61225442  0.17344244     0.44000
H2027       H  0.35669085  0.60577909  0.25444835     0.37600
H2028       H  0.36860045  0.66662548  0.18464378     0.34000
H2029       H  0.41885370  0.60065260  0.08076247     0.25800
H2030       H  0.41850149  0.67825411  0.20280405     0.31800
H2031       H  0.36190182  0.67112893  0.28130050     0.37700
H2032       H  0.38271973  0.57848700  0.07584508     0.32100
H2033       H  0.32920072  0.56877406  0.15955327     0.31000
H2034       H  0.33169411  0.58597202  0.24532261     0.32700
H2035       H  0.33407165  0.62620183  0.28012400     0.31700
H2036       H  0.41264896  0.57694862  0.15513566     0.35700
H2037       H  0.42002605  0.58011475  0.24289342     0.28400
H2038       H  0.33984827  0.66591869  0.08992820     0.32600
H2039       H  0.33281439  0.66936544  0.24816463     0.35500
H2040       H  0.33228553  0.58104377  0.12828829     0.28100
H2041       H  0.41708842  0.59063644  0.27688044     0.40900
H2042       H  0.42064875  0.65293660  0.11720229     0.31000
H2043       H  0.42080947  0.61929970  0.09764564     0.38600
H2044       H  0.32382917  0.62907858  0.24630364     0.30500
H2045       H  0.39876573  0.67966074  0.21479577     0.30500
H2046       H  0.33459102  0.67159495  0.12686390     0.30800
Zr2047     Zr  0.35766426  0.64253876  0.63517101     2.17500
O2048       O  0.33379846  0.66144702  0.61508727    -0.51600
O2049       O  0.36359620  0.63730923  0.57536500    -0.74800
O2050       O  0.36708795  0.67344661  0.62658391    -0.81500
O2051       O  0.32224209  0.60865454  0.66230250    -0.83300
O2052       O  0.39445854  0.67647712  0.64930735    -0.78900
O2053       O  0.32663411  0.63370925  0.63173177    -0.90600
O2054       O  0.38552898  0.61692261  0.57118627    -0.76500
O2055       O  0.38850553  0.63695192  0.62846717    -0.86000
O2056       O  0.36089368  0.61109870  0.63241184    -0.85700
O2057       O  0.37099654  0.65517791  0.68479660    -0.72400
O2058       O  0.34630015  0.63083755  0.68725297    -0.84600
Zr2059     Zr  0.39529773  0.60725319  0.72822275     2.26400
Zr2060     Zr  0.40201153  0.64926175  0.67784261     2.06300
Zr2061     Zr  0.35049509  0.59949587  0.68522780     2.10000
Zr2062     Zr  0.39168092  0.60560647  0.62693696     1.78800
O2063       O  0.32767843  0.59261231  0.72673230    -0.93400
O2064       O  0.42122748  0.60863676  0.60284105    -0.41200
O2065       O  0.38148271  0.59416043  0.67959461    -0.77800
O2066       O  0.40642586  0.61785290  0.67482662    -0.96500
O2067       O  0.39119945  0.63838959  0.73081905    -0.89800
O2068       O  0.36421504  0.61173817  0.73449990    -0.92700
C2069       C  0.37472396  0.62805341  0.55832533     1.01100
C2070       C  0.31671348  0.62137694  0.64367849     1.14000
C2071       C  0.38090208  0.68267227  0.63395304     1.04800
O2072       O  0.42461290  0.65769434  0.63698570    -0.94800
O2073       O  0.43057880  0.64160338  0.70139597    -0.90600
O2074       O  0.42659315  0.61621425  0.73101516    -0.83700
C2075       C  0.43638855  0.62876033  0.71933781     1.11400
O2076       O  0.33892404  0.66722069  0.73498350    -0.96800
Zr2077     Zr  0.36010933  0.64293281  0.73620064     1.88900
O2078       O  0.39002471  0.61423007  0.78789931    -0.73400
O2079       O  0.41016471  0.67263847  0.71722934    -0.52700
O2080       O  0.37165336  0.66963960  0.76285810    -0.97400
O2081       O  0.33182467  0.63470166  0.76159916    -0.54600
O2082       O  0.36843359  0.63488862  0.79243815    -0.74000
C2083       C  0.37976029  0.62433973  0.80520076     0.98400
O2084       O  0.41427179  0.58595783  0.75686995    -0.62800
O2085       O  0.34168083  0.57529521  0.64806047    -0.57600
O2086       O  0.38714817  0.57611365  0.73208051    -0.94300
O2087       O  0.35945579  0.57180424  0.71140490    -0.92700
O2088       O  0.37792704  0.57965853  0.60146533    -0.93000
O2089       O  0.41041187  0.57943054  0.62697694    -0.91800
C2090       C  0.37372411  0.56626566  0.72543529     1.17200
H2091       H  0.35435296  0.60631655  0.61356477     0.33200
H2092       H  0.41867197  0.61480116  0.67131340     0.44000
H2093       H  0.35975023  0.60598160  0.75454657     0.37600
H2094       H  0.36866732  0.66766191  0.68698288     0.34000
H2095       H  0.42013897  0.60428645  0.57935463     0.25800
H2096       H  0.41885256  0.67995996  0.70472163     0.31800
H2097       H  0.36623319  0.66992803  0.78563732     0.37700
H2098       H  0.37780590  0.58212085  0.57694085     0.32100
H2099       H  0.33161796  0.56956363  0.65981549     0.31000
H2100       H  0.32057279  0.58306886  0.71623743     0.32700
H2101       H  0.33411376  0.62352370  0.77379036     0.31700
H2102       H  0.41421150  0.57820001  0.65075162     0.35700
H2103       H  0.42420825  0.58348212  0.74121156     0.28400
H2104       H  0.33781778  0.66601006  0.59295095     0.32600
H2105       H  0.33559781  0.66939568  0.75882867     0.35500
H2106       H  0.33628343  0.58099023  0.62812393     0.28100
H2107       H  0.41965151  0.59242789  0.77602946     0.40900
H2108       H  0.41891747  0.65630030  0.61466527     0.31000
H2109       H  0.42304469  0.62155643  0.60066409     0.38600
H2110       H  0.32424874  0.63118109  0.74236901     0.30500
H2111       H  0.39950076  0.68017303  0.71897810     0.30500
H2112       H  0.33358534  0.67186929  0.63026840     0.30800
C2113       C  0.37475172  0.62680524  0.02146775    -0.12200
C2114       C  0.39022075  0.63272577  0.00507751     0.03300
C2115       C  0.39132281  0.63218709  0.96988484    -0.12700
C2116       C  0.37708062  0.62596585  0.95060920     0.18100
C2117       C  0.36136774  0.62062986  0.96695758    -0.09800
C2118       C  0.36030377  0.62107170  0.00222459    -0.02700
H2119       H  0.40330986  0.63666783  0.95746767     0.04700
C2120       C  0.37874483  0.62555181  0.91346991     0.20100
H2121       H  0.34833364  0.61656588  0.01466876     0.09800
C2122       C  0.38050749  0.60926777  0.89668489    -0.16100
C2123       C  0.38156464  0.60849912  0.86137484     0.02800
C2124       C  0.38082963  0.62426495  0.84242710    -0.11400
C2125       C  0.37946997  0.64053640  0.85948506    -0.01500
C2126       C  0.37850168  0.64127979  0.89463522    -0.06600
H2127       H  0.38073233  0.59710730  0.91110586     0.05800
H2128       H  0.37886628  0.65276972  0.84532060     0.09200
Br2129     Br  0.34097513  0.61299071  0.94216109    -0.06300
Br2130     Br  0.40983515  0.64236035  0.02974770    -0.03300
Br2131     Br  0.38249039  0.58558935  0.84044454    -0.00400
Br2132     Br  0.37600178  0.66402441  0.91573144    -0.04800
C2133       C  0.37935936  0.62597537  0.34209271    -0.12200
C2134       C  0.38271697  0.61112725  0.36275033     0.03300
C2135       C  0.38175131  0.61281009  0.39793615    -0.12700
C2136       C  0.37761126  0.62906816  0.41308283     0.18100
C2137       C  0.37506777  0.64401784  0.39277392    -0.09800
C2138       C  0.37589437  0.64239100  0.35771954    -0.02700
H2139       H  0.38400713  0.60131025  0.41361848     0.04700
C2140       C  0.37642548  0.63021283  0.45018593     0.20100
H2141       H  0.37363120  0.65408559  0.34257890     0.09800
C2142       C  0.39207031  0.63132333  0.46879736    -0.16100
C2143       C  0.39163329  0.63146452  0.50401901     0.02800
C2144       C  0.37530935  0.63018174  0.52127776    -0.11400
C2145       C  0.35954832  0.62987323  0.50256126    -0.01500
C2146       C  0.36002478  0.62983388  0.46716998    -0.06600
H2147       H  0.40469275  0.63203567  0.45581541     0.05800
H2148       H  0.34690632  0.62900798  0.51543330     0.09200
Br2149     Br  0.37042134  0.66690126  0.41183833    -0.06300
Br2150     Br  0.38780180  0.58805502  0.34507127    -0.03300
Br2151     Br  0.41371552  0.63430482  0.52717048    -0.00400
Br2152     Br  0.33812237  0.62853625  0.44290882    -0.04800
C2153       C  0.37488113  0.54720847  0.73407226    -0.12200
C2154       C  0.39077060  0.53752602  0.73012268     0.03300
C2155       C  0.39120321  0.51949499  0.73801731    -0.12700
C2156       C  0.37599953  0.51068782  0.74940784     0.18100
C2157       C  0.36017675  0.52027147  0.75353850    -0.09800
C2158       C  0.35969340  0.53833393  0.74575478    -0.02700
H2159       H  0.40339495  0.51218337  0.73455543     0.04700
C2160       C  0.37676135  0.49142464  0.75608103     0.20100
H2161       H  0.34738066  0.54547659  0.74888260     0.09800
C2162       C  0.37523307  0.48531161  0.78934585    -0.16100
C2163       C  0.37513138  0.46717831  0.79637723     0.02800
C2164       C  0.37652794  0.45478711  0.76982859    -0.11400
C2165       C  0.37876824  0.46091849  0.73666484    -0.01500
C2166       C  0.37884428  0.47908498  0.72964500    -0.06600
H2167       H  0.37406669  0.49471011  0.80991239     0.05800
H2168       H  0.38000761  0.45154622  0.71607053     0.09200
Br2169     Br  0.33875984  0.50908430  0.76862294    -0.06300
Br2170     Br  0.41194210  0.54756348  0.71119968    -0.03300
Br2171     Br  0.37408764  0.46007704  0.84281989    -0.00400
Br2172     Br  0.38103680  0.48643420  0.68347716    -0.04800
C2173       C  0.38181261  0.37991073  0.65231996    -0.12200
C2174       C  0.38993563  0.36594906  0.63467170     0.03300
C2175       C  0.38813852  0.36471290  0.59967403    -0.12700
C2176       C  0.37852021  0.37743838  0.58171743     0.18100
C2177       C  0.37097420  0.39183077  0.59927694    -0.09800
C2178       C  0.37256530  0.39290928  0.63444060    -0.02700
H2179       H  0.39417186  0.35371355  0.58640060     0.04700
C2180       C  0.37672377  0.37549629  0.54470755     0.20100
H2181       H  0.36617344  0.40363036  0.64793513     0.09800
C2182       C  0.35999805  0.37237327  0.53045054    -0.16100
C2183       C  0.35791996  0.37087981  0.49537335     0.02800
C2184       C  0.37286302  0.37214086  0.47404029    -0.11400
C2185       C  0.38960887  0.37484818  0.48865662    -0.01500
C2186       C  0.39160628  0.37665010  0.52347567    -0.06600
H2187       H  0.34845931  0.37150969  0.54666459     0.05800
H2188       H  0.40125407  0.37599519  0.47277679     0.09200
Br2189     Br  0.35863429  0.41038630  0.57629977    -0.06300
Br2190     Br  0.40359511  0.34830300  0.65752640    -0.03300
Br2191     Br  0.33429620  0.36891458  0.47817798    -0.00400
Br2192     Br  0.41480019  0.38182647  0.54059391    -0.04800
C2193       C  0.37056937  0.37300189  0.15205861    -0.12200
C2194       C  0.35459214  0.37327017  0.13361863     0.03300
C2195       C  0.35496327  0.37206488  0.09843790    -0.12700
C2196       C  0.37103578  0.37056221  0.08109389     0.18100
C2197       C  0.38700002  0.37041978  0.09928606    -0.09800
C2198       C  0.38668862  0.37168778  0.13454863    -0.02700
H2199       H  0.34267655  0.37263413  0.08446260     0.04700
C2200       C  0.37094441  0.37094598  0.04391655     0.20100
H2201       H  0.39903311  0.37131153  0.14835096     0.09800
C2202       C  0.37286703  0.38728888  0.02788117    -0.16100
C2203       C  0.37289340  0.38847871  0.99275970     0.02800
C2204       C  0.37149479  0.37297694  0.97290098    -0.11400
C2205       C  0.36883401  0.35664698  0.98911931    -0.01500
C2206       C  0.36840313  0.35557986  0.02441462    -0.06600
H2207       H  0.37414138  0.39923410  0.04286243     0.05800
H2208       H  0.36743513  0.34464367  0.97436565     0.09200
Br2209     Br  0.40943780  0.36842119  0.07687368    -0.06300
Br2210     Br  0.33193088  0.37640694  0.15480787    -0.03300
Br2211     Br  0.37347666  0.41182276  0.97386902    -0.00400
Br2212     Br  0.36439220  0.33297718  0.04495069    -0.04800
C2213       C  0.36634416  0.45116092  0.26240381    -0.12200
C2214       C  0.35138029  0.46240655  0.26578814     0.03300
C2215       C  0.35299685  0.48059104  0.25964872    -0.12700
C2216       C  0.36905642  0.48807433  0.24906266     0.18100
C2217       C  0.38383642  0.47696277  0.24486570    -0.09800
C2218       C  0.38242534  0.45881081  0.25163178    -0.02700
H2219       H  0.34150081  0.48899266  0.26274584     0.04700
C2220       C  0.36993358  0.50743995  0.24228396     0.20100
H2221       H  0.39410197  0.45068121  0.24854429     0.09800
C2222       C  0.38064975  0.51832966  0.26235706    -0.16100
C2223       C  0.38123516  0.53672919  0.25754447     0.02800
C2224       C  0.37075436  0.54476552  0.23214637    -0.11400
C2225       C  0.36004753  0.53363539  0.21213325    -0.01500
C2226       C  0.35962510  0.51528121  0.21689668    -0.06600
H2227       H  0.38845708  0.51246732  0.28229967     0.05800
H2228       H  0.35206106  0.53916845  0.19212836     0.09200
Br2229     Br  0.40609537  0.48577714  0.22864382    -0.06300
Br2230     Br  0.32796711  0.45425274  0.27687592    -0.03300
Br2231     Br  0.39602330  0.54962086  0.28806728    -0.00400
Br2232     Br  0.34525102  0.50137174  0.18705603    -0.04800
C2233       C  0.20569894  0.37761832  0.88538817    -0.12200
C2234       C  0.21406582  0.37121513  0.85587406     0.03300
C2235       C  0.23255899  0.37044239  0.85410951    -0.12700
C2236       C  0.24310128  0.37577795  0.88139920     0.18100
C2237       C  0.23480124  0.38199920  0.91102595    -0.09800
C2238       C  0.21631005  0.38289427  0.91276708    -0.02700
H2239       H  0.23879158  0.36604847  0.83090696     0.04700
C2240       C  0.26264802  0.37605191  0.87730901     0.20100
H2241       H  0.21017990  0.38767449  0.93579336     0.09800
C2242       C  0.27156807  0.39230505  0.87895971    -0.16100
C2243       C  0.28980167  0.39344264  0.87322737     0.02800
C2244       C  0.29954352  0.37810558  0.86463455    -0.11400
C2245       C  0.29062627  0.36172811  0.86383725    -0.01500
C2246       C  0.27238454  0.36060869  0.87009281    -0.06600
H2247       H  0.26424229  0.40426740  0.88457788     0.05800
H2248       H  0.29779299  0.34974448  0.85767875     0.09200
Br2249     Br  0.24810814  0.38919277  0.94995762    -0.06300
Br2250     Br  0.20122228  0.36465788  0.81609729    -0.03300
Br2251     Br  0.30049793  0.41625483  0.87948368    -0.00400
Br2252     Br  0.26141368  0.33767943  0.86900681    -0.04800
C2253       C  0.12318015  0.37996518  0.58382258    -0.12200
C2254       C  0.13955533  0.38118267  0.60078519     0.03300
C2255       C  0.14002546  0.38094761  0.63598497    -0.12700
C2256       C  0.12441250  0.37941404  0.65477532     0.18100
C2257       C  0.10801398  0.37883077  0.63810476    -0.09800
C2258       C  0.10747214  0.37920694  0.60278985    -0.02700
H2259       H  0.15264978  0.38175455  0.64879612     0.04700
C2260       C  0.12560558  0.37854911  0.69180541     0.20100
H2261       H  0.09481874  0.37825810  0.59013519     0.09800
C2262       C  0.12697207  0.39431026  0.71013197    -0.16100
C2263       C  0.12809704  0.39403949  0.74528021     0.02800
C2264       C  0.12826224  0.37769797  0.76259927    -0.11400
C2265       C  0.12737569  0.36189243  0.74405348    -0.01500
C2266       C  0.12583556  0.36224106  0.70886682    -0.06600
H2267       H  0.12696862  0.40687918  0.69701791     0.05800
H2268       H  0.12719719  0.34928932  0.75702989     0.09200
Br2269     Br  0.08618866  0.37708277  0.66269395    -0.06300
Br2270     Br  0.16169051  0.38373465  0.57738400    -0.03300
Br2271     Br  0.12969753  0.41644465  0.76805029    -0.00400
Br2272     Br  0.12352459  0.34024583  0.68508300    -0.04800
C2273       C  0.12498966  0.37456962  0.08391893    -0.12200
C2274       C  0.12354883  0.38979112  0.10434874     0.03300
C2275       C  0.12339032  0.38812011  0.13952799    -0.12700
C2276       C  0.12495971  0.37147933  0.15477188     0.18100
C2277       C  0.12663834  0.35630240  0.13453968    -0.09800
C2278       C  0.12667606  0.35792458  0.09944892    -0.02700
H2279       H  0.12221613  0.39985871  0.15510395     0.04700
C2280       C  0.12394682  0.37010230  0.19179844     0.20100
H2281       H  0.12791075  0.34607054  0.08419851     0.09800
C2282       C  0.10725926  0.36957335  0.20709545    -0.16100
C2283       C  0.10556972  0.36835570  0.24211774     0.02800
C2284       C  0.12085264  0.36775319  0.26256925    -0.11400
C2285       C  0.13760273  0.36794304  0.24699715    -0.01500
C2286       C  0.13922754  0.36915671  0.21186890    -0.06600
H2287       H  0.09547029  0.37002263  0.19162355     0.05800
H2288       H  0.14947725  0.36762412  0.26223214     0.09200
Br2289     Br  0.12861785  0.33312270  0.15384045    -0.06300
Br2290     Br  0.12325436  0.41318470  0.08586295    -0.03300
Br2291     Br  0.08200865  0.36669304  0.26001184    -0.00400
Br2292     Br  0.16247938  0.36981523  0.19235119    -0.04800
C2293       C  0.19819857  0.37186756  0.37532916    -0.12200
C2294       C  0.20587021  0.36694690  0.34419482     0.03300
C2295       C  0.22438046  0.36598356  0.34108954    -0.12700
C2296       C  0.23540910  0.36946805  0.36887967     0.18100
C2297       C  0.22760035  0.37381978  0.40015297    -0.09800
C2298       C  0.20924052  0.37519795  0.40299942    -0.02700
H2299       H  0.23019715  0.36284971  0.31678526     0.04700
C2300       C  0.25495692  0.36999566  0.36456171     0.20100
H2301       H  0.20350840  0.37864778  0.42723856     0.09800
C2302       C  0.26376394  0.38609038  0.36997928    -0.16100
C2303       C  0.28215817  0.38734744  0.36735197     0.02800
C2304       C  0.29226366  0.37233898  0.35843665    -0.11400
C2305       C  0.28347811  0.35613140  0.35321600    -0.01500
C2306       C  0.26497117  0.35488604  0.35610591    -0.06600
H2307       H  0.25624120  0.39777535  0.37670097     0.05800
H2308       H  0.29098281  0.34448130  0.34622955     0.09200
Br2309     Br  0.24137978  0.37747712  0.44017978    -0.06300
Br2310     Br  0.19174874  0.36253817  0.30487759    -0.03300
Br2311     Br  0.29270527  0.40978054  0.37818143    -0.00400
Br2312     Br  0.25402081  0.33225650  0.34915293    -0.04800
C2313       C  0.20461344  0.62019588  0.60644875    -0.12200
C2314       C  0.21521189  0.60469549  0.60671713     0.03300
C2315       C  0.23328530  0.60591557  0.61392817    -0.12700
C2316       C  0.24118488  0.62222185  0.62124957     0.18100
C2317       C  0.23072496  0.63753203  0.62222459    -0.09800
C2318       C  0.21264602  0.63645649  0.61494786    -0.02700
H2319       H  0.24129307  0.59403612  0.61373707     0.04700
C2320       C  0.26041772  0.62289922  0.62757506     0.20100
H2321       H  0.20496268  0.64853201  0.61522334     0.09800
C2322       C  0.27188223  0.62835723  0.60171988    -0.16100
C2323       C  0.29025843  0.62824094  0.60630230     0.02800
C2324       C  0.29742204  0.62218653  0.63713788    -0.11400
C2325       C  0.28577597  0.61697193  0.66307798    -0.01500
C2326       C  0.26745121  0.61750908  0.65863975    -0.06600
H2327       H  0.26648859  0.63256222  0.57774129     0.05800
H2328       H  0.29094114  0.61273367  0.68721919     0.09200
Br2329     Br  0.24067043  0.66013942  0.63345242    -0.06300
Br2330     Br  0.20622818  0.58124870  0.59883832    -0.03300
Br2331     Br  0.30464713  0.63571647  0.56890152    -0.00400
Br2332     Br  0.25244175  0.61139368  0.69598821    -0.04800
C2333       C  0.12880822  0.54408508  0.50727025    -0.12200
C2334       C  0.14400133  0.53398110  0.49895812     0.03300
C2335       C  0.14243460  0.51580236  0.49239699    -0.12700
C2336       C  0.12597645  0.50725509  0.49368064     0.18100
C2337       C  0.11081760  0.51718545  0.50173868    -0.09800
C2338       C  0.11229608  0.53537764  0.50837429    -0.02700
H2339       H  0.15413816  0.50828930  0.48574752     0.04700
C2340       C  0.12494447  0.48809584  0.48543862     0.20100
H2341       H  0.10043396  0.54272502  0.51461829     0.09800
C2342       C  0.12421998  0.47557694  0.51154051    -0.16100
C2343       C  0.12424579  0.45737109  0.50440049     0.02800
C2344       C  0.12503054  0.45142946  0.47063994    -0.11400
C2345       C  0.12576541  0.46399452  0.44458405    -0.01500
C2346       C  0.12558192  0.48216924  0.45174336    -0.06600
H2347       H  0.12397030  0.47999098  0.53756510     0.05800
H2348       H  0.12625290  0.45965034  0.41852124     0.09200
Br2349     Br  0.08779454  0.50648741  0.50304201    -0.06300
Br2350     Br  0.16714995  0.54413705  0.49372513    -0.03300
Br2351     Br  0.12459629  0.44114896  0.54161013    -0.00400
Br2352     Br  0.12584522  0.49853055  0.41479188    -0.04800
C2353       C  0.13141014  0.63308970  0.71202671    -0.12200
C2354       C  0.14680796  0.63824005  0.72986067     0.03300
C2355       C  0.14667654  0.63828532  0.76530678    -0.12700
C2356       C  0.13149179  0.63320836  0.78332401     0.18100
C2357       C  0.11608845  0.62859363  0.76570269    -0.09800
C2358       C  0.11611655  0.62860832  0.73053922    -0.02700
H2359       H  0.15856625  0.64191934  0.77888203     0.04700
C2360       C  0.13171204  0.63260570  0.82053348     0.20100
H2361       H  0.10407473  0.62483068  0.71760685     0.09800
C2362       C  0.12853749  0.64815491  0.83880686    -0.16100
C2363       C  0.12703644  0.64776448  0.87398679     0.02800
C2364       C  0.12866666  0.63155715  0.89137560    -0.11400
C2365       C  0.13184052  0.61600432  0.87299859    -0.01500
C2366       C  0.13347996  0.61645302  0.83783468    -0.06600
H2367       H  0.12683075  0.66056276  0.82557067     0.05800
H2368       H  0.13336361  0.60352758  0.88608025     0.09200
Br2369     Br  0.09474400  0.62185166  0.78875605    -0.06300
Br2370     Br  0.16870871  0.64419879  0.70783048    -0.03300
Br2371     Br  0.12161590  0.66954734  0.89674076    -0.00400
Br2372     Br  0.13813691  0.59473555  0.81437072    -0.04800
C2373       C  0.12422277  0.61484844  0.39192867    -0.12200
C2374       C  0.10851045  0.61457916  0.37280320     0.03300
C2375       C  0.10947326  0.61460673  0.33744487    -0.12700
C2376       C  0.12588412  0.61477200  0.32073886     0.18100
C2377       C  0.14153360  0.61442285  0.33977534    -0.09800
C2378       C  0.14060715  0.61445376  0.37498358    -0.02700
H2379       H  0.09737299  0.61499308  0.32288267     0.04700
C2380       C  0.12641731  0.61655847  0.28359792     0.20100
H2381       H  0.15281582  0.61463259  0.38925668     0.09800
C2382       C  0.12367241  0.63326750  0.26925889    -0.16100
C2383       C  0.12367203  0.63549791  0.23419071     0.02800
C2384       C  0.12645922  0.62083633  0.21280991    -0.11400
C2385       C  0.12919945  0.60408690  0.22727815    -0.01500
C2386       C  0.12928754  0.60189240  0.26238938    -0.06600
H2387       H  0.12127754  0.64458391  0.28545968     0.05800
H2388       H  0.13126062  0.59266391  0.21118573     0.09200
Br2389     Br  0.16445993  0.61490991  0.31884211    -0.06300
Br2390     Br  0.08551195  0.61581699  0.39332963    -0.03300
Br2391     Br  0.11823820  0.65849004  0.21687126    -0.00400
Br2392     Br  0.13298820  0.57865592  0.28041500    -0.04800
C2393       C  0.29554703  0.62344984  0.13761808    -0.12200
C2394       C  0.28330424  0.60959695  0.14466952     0.03300
C2395       C  0.26533594  0.61180803  0.13749794    -0.12700
C2396       C  0.25896995  0.62752241  0.12359776     0.18100
C2397       C  0.27084320  0.64142832  0.11701749    -0.09800
C2398       C  0.28890629  0.63930994  0.12384497    -0.02700
H2399       H  0.25619207  0.60106606  0.14259207     0.04700
C2400       C  0.23990354  0.62868723  0.11555649     0.20100
H2401       H  0.29773847  0.65026184  0.11856000     0.09800
C2402       C  0.22772698  0.63243300  0.14138105    -0.16100
C2403       C  0.20945597  0.63146191  0.13552996     0.02800
C2404       C  0.20314032  0.62644324  0.10335756    -0.11400
C2405       C  0.21542170  0.62295091  0.07749524    -0.01500
C2406       C  0.23362691  0.62409488  0.08333108    -0.06600
H2407       H  0.23247508  0.63566394  0.16642274     0.05800
H2408       H  0.21083135  0.61926452  0.05256647     0.09200
Br2409     Br  0.26291699  0.66358809  0.09917553    -0.06300
Br2410     Br  0.28953785  0.58700920  0.16343069    -0.03300
Br2411     Br  0.19391962  0.63570474  0.17310435    -0.00400
Br2412     Br  0.24947067  0.61860559  0.04689998    -0.04800
C2413       C  0.12498465  0.45542898  0.96879921    -0.12200
C2414       C  0.11649115  0.46309079  0.99722197     0.03300
C2415       C  0.11618659  0.48159088  0.00131767    -0.12700
C2416       C  0.12430158  0.49284987  0.97773375     0.18100
C2417       C  0.13254993  0.48532072  0.94927469    -0.09800
C2418       C  0.13279407  0.46691599  0.94499042    -0.02700
H2419       H  0.11004774  0.48721952  0.02362217     0.04700
C2420       C  0.12536221  0.51223291  0.98451228     0.20100
H2421       H  0.13923273  0.46156768  0.92274797     0.09800
C2422       C  0.14160916  0.51955745  0.99421439    -0.16100
C2423       C  0.14340653  0.53768286  0.00104112     0.02800
C2424       C  0.12856282  0.54912280  0.99851418    -0.11400
C2425       C  0.11229833  0.54166134  0.98823069    -0.01500
C2426       C  0.11063477  0.52347114  0.98133876    -0.06600
H2427       H  0.15306751  0.51104461  0.99639907     0.05800
H2428       H  0.10069412  0.54994625  0.98588431     0.09200
Br2429     Br  0.14365792  0.49970663  0.91542527    -0.06300
Br2430     Br  0.10637821  0.44931454  0.03292039    -0.03300
Br2431     Br  0.16686228  0.54555152  0.01229859    -0.00400
Br2432     Br  0.08811566  0.51456251  0.96689441    -0.04800
C2433       C  0.54965149  0.36711586  0.75393507    -0.12200
C2434       C  0.53893113  0.35183284  0.75854225     0.03300
C2435       C  0.52052158  0.35287894  0.75478312    -0.12700
C2436       C  0.51224965  0.36866545  0.74516080     0.18100
C2437       C  0.52297706  0.38346913  0.73772866    -0.09800
C2438       C  0.54137787  0.38264278  0.74229965    -0.02700
H2439       H  0.51253322  0.34134182  0.76046851     0.04700
C2440       C  0.49252473  0.36992913  0.74691846     0.20100
H2441       H  0.54913859  0.39445609  0.73769000     0.09800
C2442       C  0.48495705  0.38240978  0.76892419    -0.16100
C2443       C  0.46664448  0.38323761  0.77395549     0.02800
C2444       C  0.45535687  0.37122933  0.75731343    -0.11400
C2445       C  0.46279132  0.35867905  0.73527861    -0.01500
C2446       C  0.48118198  0.35806701  0.72970271    -0.06600
H2447       H  0.49341669  0.39127144  0.78313668     0.05800
H2448       H  0.45427403  0.34929778  0.72246624     0.09200
Br2449     Br  0.51311780  0.40518415  0.72128788    -0.06300
Br2450     Br  0.54813345  0.32886458  0.76953514    -0.03300
Br2451     Br  0.45786637  0.40009519  0.80614049    -0.00400
Br2452     Br  0.49006469  0.34103445  0.69793369    -0.04800
C2453       C  0.54335403  0.37158862  0.26836038    -0.12200
C2454       C  0.53173649  0.36341614  0.29182663     0.03300
C2455       C  0.51345728  0.36355836  0.28645228    -0.12700
C2456       C  0.50612938  0.37202523  0.25842880     0.18100
C2457       C  0.51748882  0.38071028  0.23553656    -0.09800
C2458       C  0.53592251  0.38036630  0.24047553    -0.02700
H2459       H  0.50479806  0.35730513  0.30475858     0.04700
C2460       C  0.48652823  0.37218673  0.25504853     0.20100
H2461       H  0.54446528  0.38684859  0.22228605     0.09800
C2462       C  0.47712209  0.38733251  0.26475673    -0.16100
C2463       C  0.45861050  0.38706070  0.26754342     0.02800
C2464       C  0.44903535  0.37140875  0.26013411    -0.11400
C2465       C  0.45850679  0.35638151  0.24950744    -0.01500
C2466       C  0.47704337  0.35670511  0.24684537    -0.06600
H2467       H  0.48429945  0.39916549  0.27197973     0.05800
H2468       H  0.45148898  0.34421774  0.24392225     0.09200
Br2469     Br  0.50836378  0.39295608  0.19706956    -0.06300
Br2470     Br  0.53951162  0.35310724  0.33345514    -0.03300
Br2471     Br  0.44756293  0.40778649  0.28602111    -0.00400
Br2472     Br  0.48901730  0.33561432  0.23257601    -0.04800
C2473       C  0.62429014  0.36708486  0.46799281    -0.12200
C2474       C  0.60858427  0.36659316  0.48742383     0.03300
C2475       C  0.60944624  0.36785334  0.52254281    -0.12700
C2476       C  0.62577893  0.36904371  0.53890401     0.18100
C2477       C  0.64149742  0.36837113  0.51980259    -0.09800
C2478       C  0.64067361  0.36754209  0.48455708    -0.02700
H2479       H  0.59733311  0.36758049  0.53724524     0.04700
C2480       C  0.62605889  0.36977252  0.57606825     0.20100
H2481       H  0.65285170  0.36774397  0.47005925     0.09800
C2482       C  0.62797370  0.35398780  0.59398967    -0.16100
C2483       C  0.62768575  0.35388979  0.62924079     0.02800
C2484       C  0.62563664  0.36995968  0.64729010    -0.11400
C2485       C  0.62340710  0.38573978  0.62907345    -0.01500
C2486       C  0.62355102  0.38573147  0.59375990    -0.06600
H2487       H  0.62944190  0.34161857  0.58039184     0.05800
H2488       H  0.62178502  0.39818726  0.64232416     0.09200
Br2489     Br  0.66430773  0.36877281  0.54077799    -0.06300
Br2490     Br  0.58571539  0.36274798  0.46774642    -0.03300
Br2491     Br  0.62893621  0.33114897  0.65059055    -0.00400
Br2492     Br  0.62036392  0.40779795  0.57080090    -0.04800
C2493       C  0.62049426  0.38064931  0.14767215    -0.12200
C2494       C  0.60509684  0.37820132  0.12818174     0.03300
C2495       C  0.60632249  0.37813864  0.09284071    -0.12700
C2496       C  0.62270086  0.38063628  0.07667195     0.18100
C2497       C  0.63791753  0.38364887  0.09616094    -0.09800
C2498       C  0.63674316  0.38352721  0.13129750    -0.02700
H2499       H  0.59454251  0.37587081  0.07792388     0.04700
C2500       C  0.62388845  0.37995267  0.03949559     0.20100
H2501       H  0.64867409  0.38541689  0.14598464     0.09800
C2502       C  0.62627635  0.39573086  0.02156217    -0.16100
C2503       C  0.62821206  0.39556254  0.98647757     0.02800
C2504       C  0.62772236  0.37935199  0.96873020    -0.11400
C2505       C  0.62564179  0.36353148  0.98681116    -0.01500
C2506       C  0.62366908  0.36373992  0.02194094    -0.06600
H2507       H  0.62681906  0.40821570  0.03501264     0.05800
H2508       H  0.62513125  0.35100388  0.97350139     0.09200
Br2509     Br  0.66074450  0.38717405  0.07588106    -0.06300
Br2510     Br  0.58245713  0.37360919  0.14846096    -0.03300
Br2511     Br  0.63243725  0.41777236  0.96445038    -0.00400
Br2512     Br  0.62101344  0.34159290  0.04495532    -0.04800
C2513       C  0.45570602  0.62802958  0.72588054    -0.12200
C2514       C  0.46820936  0.63266374  0.70071873     0.03300
C2515       C  0.48628351  0.63201476  0.70775698    -0.12700
C2516       C  0.49239143  0.62653072  0.73932059     0.18100
C2517       C  0.48010996  0.62148355  0.76427153    -0.09800
C2518       C  0.46190675  0.62222459  0.75743454    -0.02700
H2519       H  0.49571433  0.63548630  0.68817922     0.04700
C2520       C  0.51172673  0.62555787  0.74445821     0.20100
H2521       H  0.45257567  0.61837166  0.77690046     0.09800
C2522       C  0.52088220  0.64053787  0.75604964    -0.16100
C2523       C  0.53941041  0.64128514  0.75453829     0.02800
C2524       C  0.54900188  0.62684641  0.74124914    -0.11400
C2525       C  0.53981702  0.61143728  0.73186838    -0.01500
C2526       C  0.52133756  0.61079015  0.73304238    -0.06600
H2527       H  0.51356342  0.65195536  0.76492036     0.05800
H2528       H  0.54696205  0.60024217  0.72153326     0.09200
Br2529     Br  0.48768597  0.61329277  0.80760865    -0.06300
Br2530     Br  0.46180668  0.63850097  0.65524446    -0.03300
Br2531     Br  0.55096455  0.66224556  0.77085016    -0.00400
Br2532     Br  0.50966330  0.59002677  0.71622414    -0.04800
C2533       C  0.63083634  0.54586086  0.73424110    -0.12200
C2534       C  0.62202204  0.53739207  0.76133451     0.03300
C2535       C  0.62150668  0.51883359  0.76303079    -0.12700
C2536       C  0.62983352  0.50833693  0.73841871     0.18100
C2537       C  0.63880376  0.51665884  0.71171444    -0.09800
C2538       C  0.63918851  0.53512510  0.70974041    -0.02700
H2539       H  0.61489973  0.51251948  0.78413204     0.04700
C2540       C  0.63013844  0.48880619  0.74229016     0.20100
H2541       H  0.64600584  0.54108049  0.68851690     0.09800
C2542       C  0.62013838  0.47794109  0.72072516    -0.16100
C2543       C  0.62030609  0.45940206  0.72406587     0.02800
C2544       C  0.63074765  0.45139069  0.74942412    -0.11400
C2545       C  0.64091867  0.46253146  0.77047441    -0.01500
C2546       C  0.64064225  0.48090594  0.76717634    -0.06600
H2547       H  0.61216378  0.48393418  0.70117961     0.05800
H2548       H  0.64897712  0.45700437  0.79037595     0.09200
Br2549     Br  0.65130949  0.50335979  0.67795891    -0.06300
Br2550     Br  0.61161441  0.55007348  0.79817843    -0.03300
Br2551     Br  0.60655893  0.44608558  0.69233339    -0.00400
Br2552     Br  0.65507614  0.49467503  0.79719418    -0.04800
C2553       C  0.45257411  0.62460584  0.23191113    -0.12200
C2554       C  0.46216727  0.60922904  0.22324648     0.03300
C2555       C  0.48048640  0.60891517  0.22729664    -0.12700
C2556       C  0.48954623  0.62376147  0.23944952     0.18100
C2557       C  0.48000388  0.63895517  0.24893255    -0.09800
C2558       C  0.46160714  0.63927432  0.24519093    -0.02700
H2559       H  0.48785043  0.59739326  0.21904287     0.04700
C2560       C  0.50893773  0.62408229  0.23607870     0.20100
H2561       H  0.45440129  0.65119809  0.25162585     0.09800
C2562       C  0.51602658  0.62733644  0.20403923    -0.16100
C2563       C  0.53423404  0.62702866  0.19865011     0.02800
C2564       C  0.54576295  0.62367041  0.22581321    -0.11400
C2565       C  0.53865527  0.61994054  0.25782232    -0.01500
C2566       C  0.52029367  0.62012415  0.26307999    -0.06600
H2567       H  0.50728348  0.62985927  0.18296211     0.05800
H2568       H  0.54738061  0.61721627  0.27880848     0.09200
Br2569     Br  0.49166097  0.65994610  0.26462057    -0.06300
Br2570     Br  0.45151732  0.58917690  0.20137702    -0.03300
Br2571     Br  0.54246736  0.63000607  0.15311039    -0.00400
Br2572     Br  0.51121525  0.61482535  0.30713152    -0.04800
C2573       C  0.62647141  0.62612826  0.84553886    -0.12200
C2574       C  0.62071405  0.61246157  0.86734161     0.03300
C2575       C  0.62114769  0.61503860  0.90234184    -0.12700
C2576       C  0.62690825  0.63112841  0.91626364     0.18100
C2577       C  0.63246186  0.64477923  0.89475521    -0.09800
C2578       C  0.63227496  0.64219867  0.85992016    -0.02700
H2579       H  0.61694694  0.60441761  0.91888418     0.04700
C2580       C  0.62695449  0.63345043  0.95326116     0.20100
H2581       H  0.63646023  0.65306250  0.84397178     0.09800
C2582       C  0.64307812  0.63584105  0.97023349    -0.16100
C2583       C  0.64361883  0.63702824  0.00548370     0.02800
C2584       C  0.62778753  0.63545321  0.02421116    -0.11400
C2585       C  0.61162949  0.63391358  0.00694699    -0.01500
C2586       C  0.61110397  0.63292517  0.97186339    -0.06600
H2587       H  0.65533377  0.63634589  0.95600345     0.05800
H2588       H  0.59930770  0.63301169  0.02091549     0.09200
Br2589     Br  0.63965904  0.66749290  0.91165305    -0.06300
Br2590     Br  0.61266831  0.58983080  0.85175087    -0.03300
Br2591     Br  0.66639854  0.63939410  0.02636955    -0.00400
Br2592     Br  0.58839890  0.63078420  0.95061583    -0.04800
C2593       C  0.62467183  0.61976877  0.52268977    -0.12200
C2594       C  0.61475475  0.60674058  0.50475584     0.03300
C2595       C  0.61500670  0.60640665  0.46955088    -0.12700
C2596       C  0.62526741  0.61833120  0.45113655     0.18100
C2597       C  0.63583653  0.63069822  0.46841241    -0.09800
C2598       C  0.63535828  0.63146974  0.50380150    -0.02700
H2599       H  0.60706652  0.59668954  0.45626531     0.04700
C2600       C  0.62412090  0.61781933  0.41390382     0.20100
H2601       H  0.64342943  0.64127678  0.51648339     0.09800
C2602       C  0.61395793  0.63061433  0.39734414    -0.16100
C2603       C  0.61181569  0.63003989  0.36231295     0.02800
C2604       C  0.61989975  0.61651923  0.34329655    -0.11400
C2605       C  0.62971803  0.60345401  0.35990567    -0.01500
C2606       C  0.63178424  0.60397522  0.39504667    -0.06600
H2607       H  0.60764267  0.64105024  0.41175370     0.05800
H2608       H  0.63632265  0.59323062  0.34541522     0.09200
Br2609     Br  0.65161350  0.64622976  0.44467493    -0.06300
Br2610     Br  0.60071482  0.58835986  0.52507579    -0.03300
Br2611     Br  0.59778869  0.64801809  0.34128432    -0.00400
Br2612     Br  0.64577600  0.58603169  0.41625452    -0.04800
C2613       C  0.62616027  0.45235228  0.25996667    -0.12200
C2614       C  0.62300929  0.46477678  0.28584900     0.03300
C2615       C  0.62330847  0.48286665  0.27862596    -0.12700
C2616       C  0.62681833  0.48886167  0.24583059     0.18100
C2617       C  0.62991939  0.47643533  0.21990143    -0.09800
C2618       C  0.62947303  0.45829161  0.22707147    -0.02700
H2619       H  0.62091292  0.49232138  0.29871208     0.04700
C2620       C  0.62752238  0.50813248  0.23948661     0.20100
H2621       H  0.63195177  0.44881643  0.20706247     0.09800
C2622       C  0.64396321  0.51634932  0.23467024    -0.16100
C2623       C  0.64521604  0.53462651  0.22931468     0.02800
C2624       C  0.62968206  0.54509866  0.22852088    -0.11400
C2625       C  0.61324731  0.53672503  0.23402183    -0.01500
C2626       C  0.61209251  0.51848043  0.23948937    -0.06600
H2627       H  0.65592582  0.50848180  0.23538596     0.05800
H2628       H  0.60111735  0.54431771  0.23341306     0.09200
Br2629     Br  0.63455662  0.48363582  0.17435929    -0.06300
Br2630     Br  0.61791390  0.45768453  0.33132957    -0.03300
Br2631     Br  0.66865083  0.54425267  0.22502793    -0.00400
Br2632     Br  0.58909771  0.50817258  0.24583571    -0.04800
C2633       C  0.95366961  0.62740312  0.52519836    -0.12200
C2634       C  0.96146320  0.61743360  0.49873562     0.03300
C2635       C  0.97991931  0.61693194  0.49505971    -0.12700
C2636       C  0.99102869  0.62640107  0.51687260     0.18100
C2637       C  0.98335411  0.63676994  0.54262147    -0.09800
C2638       C  0.96495178  0.63709163  0.54669330    -0.02700
H2639       H  0.98566426  0.60934587  0.47455931     0.04700
C2640       C  0.01050967  0.62581834  0.51168052     0.20100
H2641       H  0.95947960  0.64489089  0.56716767     0.09800
C2642       C  0.01948642  0.64134761  0.50254342    -0.16100
C2643       C  0.03795869  0.64173742  0.50001108     0.02800
C2644       C  0.04790043  0.62628895  0.50650329    -0.11400
C2645       C  0.03878795  0.61044212  0.51330656    -0.01500
C2646       C  0.02028593  0.61011442  0.51602041    -0.06600
H2647       H  0.01207014  0.65336308  0.49805455     0.05800
H2648       H  0.04611131  0.59845033  0.51850796     0.09200
Br2649     Br  0.99737422  0.65046615  0.57350982    -0.06300
Br2650     Br  0.94800676  0.60532341  0.46486857    -0.03300
Br2651     Br  0.04872991  0.66378367  0.48731967    -0.00400
Br2652     Br  0.00915883  0.58818028  0.52818055    -0.04800
C2653       C  0.79591496  0.62152209  0.61788366    -0.12200
C2654       C  0.78577819  0.63566912  0.60521679     0.03300
C2655       C  0.76735145  0.63537474  0.60838425    -0.12700
C2656       C  0.75866900  0.62135310  0.62471660     0.18100
C2657       C  0.76886424  0.60737328  0.63801613    -0.09800
C2658       C  0.78729414  0.60743150  0.63405369    -0.02700
H2659       H  0.75970661  0.64600302  0.59739282     0.04700
C2660       C  0.73900616  0.62121155  0.62604261     0.20100
H2661       H  0.79494874  0.59648817  0.64384255     0.09800
C2662       C  0.72969469  0.60701095  0.61148863    -0.16100
C2663       C  0.71118296  0.60629826  0.61262947     0.02800
C2664       C  0.70160579  0.62030463  0.62734893    -0.11400
C2665       C  0.71086165  0.63483421  0.64065602    -0.01500
C2666       C  0.72936411  0.63527995  0.64058981    -0.06600
H2667       H  0.73688306  0.59632137  0.59946578     0.05800
H2668       H  0.70367337  0.64547684  0.65286744     0.09200
Br2669     Br  0.75841149  0.58820880  0.66281838    -0.06300
Br2670     Br  0.79620902  0.65502236  0.58083439    -0.03300
Br2671     Br  0.69961076  0.58610161  0.59327140    -0.00400
Br2672     Br  0.74067841  0.65472289  0.66320685    -0.04800
C2673       C  0.95462708  0.63098870  0.01648197    -0.12200
C2674       C  0.96145994  0.62347468  0.98630124     0.03300
C2675       C  0.97981977  0.62360331  0.97997754    -0.12700
C2676       C  0.99172418  0.63107822  0.00316602     0.18100
C2677       C  0.98493437  0.63871595  0.03294151    -0.09800
C2678       C  0.96668174  0.63871613  0.03922218    -0.02700
H2679       H  0.98484903  0.61782784  0.95682318     0.04700
C2680       C  0.01119475  0.63063879  0.99668293     0.20100
H2681       H  0.96194499  0.64445676  0.06263087     0.09800
C2682       C  0.02026991  0.64643233  0.98954254    -0.16100
C2683       C  0.03884454  0.64696980  0.98838906     0.02800
C2684       C  0.04880478  0.63152357  0.99491321    -0.11400
C2685       C  0.03963117  0.61547679  0.99948879    -0.01500
C2686       C  0.02104320  0.61494562  0.00033366    -0.06600
H2687       H  0.01286266  0.65852549  0.98582708     0.05800
H2688       H  0.04692217  0.60344185  0.00447283     0.09200
Br2689     Br  0.00018191  0.64854375  0.06681377    -0.06300
Br2690     Br  0.94657595  0.61362095  0.95185445    -0.03300
Br2691     Br  0.04986259  0.66911623  0.97725219    -0.00400
Br2692     Br  0.00969390  0.59270939  0.00915392    -0.04800
C2693       C  0.86914574  0.62460082  0.73079205    -0.12200
C2694       C  0.87263063  0.63982591  0.75029840     0.03300
C2695       C  0.87374627  0.63849189  0.78550270    -0.12700
C2696       C  0.87165715  0.62209878  0.80161995     0.18100
C2697       C  0.86795780  0.60695171  0.78224649    -0.09800
C2698       C  0.86674610  0.60827661  0.74714180    -0.02700
H2699       H  0.87668787  0.65019010  0.80031748     0.04700
C2700       C  0.87331457  0.62095046  0.83868542     0.20100
H2701       H  0.86437696  0.59641003  0.73242754     0.09800
C2702       C  0.85800988  0.61850152  0.85809651    -0.16100
C2703       C  0.85893889  0.61758974  0.89322457     0.02800
C2704       C  0.87541447  0.61934995  0.90960794    -0.11400
C2705       C  0.89085137  0.62103162  0.89008125    -0.01500
C2706       C  0.88988540  0.62188180  0.85479293    -0.06600
H2707       H  0.84526916  0.61733828  0.84581293     0.05800
H2708       H  0.90358778  0.62236770  0.90231091     0.09200
Br2709     Br  0.86556515  0.58405799  0.80269339    -0.06300
Br2710     Br  0.87787121  0.66225923  0.72996562    -0.03300
Br2711     Br  0.83732743  0.61329400  0.91743711    -0.00400
Br2712     Br  0.91143371  0.62431552  0.82952857    -0.04800
C2713       C  0.87925554  0.62513275  0.40941755    -0.12200
C2714       C  0.87842303  0.60972097  0.38932184     0.03300
C2715       C  0.87717906  0.61124733  0.35408677    -0.12700
C2716       C  0.87684129  0.62794403  0.33856650     0.18100
C2717       C  0.87808522  0.64324801  0.35859942    -0.09800
C2718       C  0.87924251  0.64175666  0.39359462    -0.02700
H2719       H  0.87633329  0.59939618  0.33875034     0.04700
C2720       C  0.87576033  0.62926376  0.30140730     0.20100
H2721       H  0.87986571  0.65372839  0.40864921     0.09800
C2722       C  0.85928162  0.62805977  0.28523913    -0.16100
C2723       C  0.85804235  0.62928397  0.24994999     0.02800
C2724       C  0.87352554  0.63152260  0.23043320    -0.11400
C2725       C  0.88991824  0.63297024  0.24688803    -0.01500
C2726       C  0.89110150  0.63200411  0.28199375    -0.06600
H2727       H  0.84739225  0.62605588  0.30010400     0.05800
H2728       H  0.90194161  0.63466120  0.23225690     0.09200
Br2729     Br  0.87789160  0.66651278  0.33935290    -0.06300
Br2730     Br  0.87762723  0.58646463  0.40869326    -0.03300
Br2731     Br  0.83518012  0.62663070  0.22959558    -0.00400
Br2732     Br  0.91398879  0.63420013  0.30244794    -0.04800
C2733       C  0.79657677  0.62551741  0.11315512    -0.12200
C2734       C  0.78560085  0.62616862  0.08439454     0.03300
C2735       C  0.76718458  0.62647545  0.08793073    -0.12700
C2736       C  0.75927345  0.62605757  0.11987434     0.18100
C2737       C  0.77012343  0.62568652  0.14877230    -0.09800
C2738       C  0.78867219  0.62562538  0.14530564    -0.02700
H2739       H  0.75896517  0.62682890  0.06558654     0.04700
C2740       C  0.73969375  0.62519574  0.12229031     0.20100
H2741       H  0.79688818  0.62512182  0.16763187     0.09800
C2742       C  0.73125955  0.60869289  0.12036832    -0.16100
C2743       C  0.71281013  0.60724049  0.12308089     0.02800
C2744       C  0.70238201  0.62256256  0.12810990    -0.11400
C2745       C  0.71089611  0.63916212  0.12841589    -0.01500
C2746       C  0.72933354  0.64055142  0.12543823    -0.06600
H2747       H  0.73910849  0.59684853  0.11685590     0.05800
H2748       H  0.70326492  0.65113024  0.13206695     0.09200
Br2749     Br  0.76001256  0.62457821  0.19317710    -0.06300
Br2750     Br  0.79507162  0.62706996  0.03947727    -0.03300
Br2751     Br  0.70274404  0.58402741  0.11828086    -0.00400
Br2752     Br  0.73984062  0.66365973  0.12604285    -0.04800
C2753       C  0.95462584  0.37222888  0.98949518    -0.12200
C2754       C  0.96489679  0.38687462  0.97891905     0.03300
C2755       C  0.98345143  0.38611351  0.98005808    -0.12700
C2756       C  0.99217634  0.37094375  0.99163186     0.18100
C2757       C  0.98200897  0.35661560  0.00356889    -0.09800
C2758       C  0.96343799  0.35726445  0.00218164    -0.02700
H2759       H  0.99113627  0.39713268  0.97044875     0.04700
C2760       C  0.01171973  0.36958610  0.98752734     0.20100
H2761       H  0.95585039  0.34588079  0.01042123     0.09800
C2762       C  0.02312897  0.37661836  0.01204068    -0.16100
C2763       C  0.04162577  0.37591709  0.00785377     0.02800
C2764       C  0.04904326  0.36822867  0.97842697    -0.11400
C2765       C  0.03746014  0.36087698  0.95437953    -0.01500
C2766       C  0.01906816  0.36155663  0.95865975    -0.06600
H2767       H  0.01761977  0.38262038  0.03457777     0.05800
H2768       H  0.04269817  0.35499776  0.93148828     0.09200
Br2769     Br  0.99309053  0.33571224  0.02083962    -0.06300
Br2770     Br  0.95448905  0.40747218  0.95901807    -0.03300
Br2771     Br  0.05595064  0.38468369  0.04408930    -0.00400
Br2772     Br  0.00438265  0.35183718  0.92378669    -0.04800
C2773       C  0.79743137  0.38196453  0.89510090    -0.12200
C2774       C  0.78539881  0.37578683  0.91963844     0.03300
C2775       C  0.76719939  0.37598972  0.91326642    -0.12700
C2776       C  0.76061711  0.38219549  0.88244901     0.18100
C2777       C  0.77265267  0.38828344  0.85771275    -0.09800
C2778       C  0.79093692  0.38815103  0.86416587    -0.02700
H2779       H  0.75811486  0.37125654  0.93245048     0.04700
C2780       C  0.74117447  0.38223311  0.87677789     0.20100
H2781       H  0.80007141  0.39288050  0.84506893     0.09800
C2782       C  0.73198469  0.39834478  0.87648550    -0.16100
C2783       C  0.71362860  0.39885224  0.87128240     0.02800
C2784       C  0.70408503  0.38299630  0.86576872    -0.11400
C2785       C  0.71329622  0.36684225  0.86723176    -0.01500
C2786       C  0.73160264  0.36636465  0.87276601    -0.06600
H2787       H  0.73913153  0.41059553  0.88061022     0.05800
H2788       H  0.70632165  0.35449542  0.86309507     0.09200
Br2789     Br  0.76468647  0.39634066  0.81449216    -0.06300
Br2790     Br  0.79326387  0.36666269  0.96214810    -0.03300
Br2791     Br  0.70225886  0.42147930  0.87420403    -0.00400
Br2792     Br  0.74308465  0.34374216  0.87340529    -0.04800
C2793       C  0.87237392  0.45407317  0.99928256    -0.12200
C2794       C  0.88117594  0.46208246  0.02690685     0.03300
C2795       C  0.88079447  0.48060343  0.03101841    -0.12700
C2796       C  0.87197822  0.49147838  0.00780999     0.18100
C2797       C  0.86348976  0.48360022  0.98011728    -0.09800
C2798       C  0.86364856  0.46520051  0.97615969    -0.02700
H2799       H  0.88741945  0.48656244  0.05242885     0.04700
C2800       C  0.87179944  0.51102987  0.01234008     0.20100
H2801       H  0.85703048  0.45959283  0.95440435     0.09800
C2802       C  0.88397228  0.52147417  0.99452722    -0.16100
C2803       C  0.88364090  0.54003125  0.99666197     0.02800
C2804       C  0.87115058  0.54865383  0.01787657    -0.11400
C2805       C  0.85871358  0.53794710  0.03508904    -0.01500
C2806       C  0.85886058  0.51944633  0.03219188    -0.06600
H2807       H  0.89358475  0.51511933  0.97820088     0.05800
H2808       H  0.84881462  0.54391633  0.05129371     0.09200
Br2809     Br  0.85143045  0.49755740  0.94701864    -0.06300
Br2810     Br  0.89335840  0.44866774  0.06054807    -0.03300
Br2811     Br  0.89989328  0.55234640  0.96784592    -0.00400
Br2812     Br  0.84079229  0.50618206  0.05503698    -0.04800
C2813       C  0.95055265  0.37342004  0.49435497    -0.12200
C2814       C  0.96089307  0.38867715  0.48775920     0.03300
C2815       C  0.97937358  0.38783109  0.49002063    -0.12700
C2816       C  0.98786371  0.37205746  0.49888172     0.18100
C2817       C  0.97760533  0.35714769  0.50722376    -0.09800
C2818       C  0.95914835  0.35789079  0.50482941    -0.02700
H2819       H  0.98722313  0.39928724  0.48311847     0.04700
C2820       C  0.00723177  0.37065915  0.49415365     0.20100
H2821       H  0.95149580  0.34608877  0.51023100     0.09800
C2822       C  0.01890152  0.37491039  0.52049142    -0.16100
C2823       C  0.03732451  0.37403226  0.51560943     0.02800
C2824       C  0.04418956  0.36873115  0.48399793    -0.11400
C2825       C  0.03237291  0.36427466  0.45802341    -0.01500
C2826       C  0.01412263  0.36534917  0.46275199    -0.06600
H2827       H  0.01366958  0.37892559  0.54480216     0.05800
H2828       H  0.03737664  0.36038829  0.43344584     0.09200
Br2829     Br  0.98833978  0.33521237  0.52004250    -0.06300
Br2830     Br  0.95099490  0.41049002  0.47191477    -0.03300
Br2831     Br  0.05241492  0.37927218  0.55315236    -0.00400
Br2832     Br  0.99907840  0.35995854  0.42513423    -0.04800
C2833       C  0.87415914  0.37862145  0.60670347    -0.12200
C2834       C  0.87589391  0.39448872  0.62528408     0.03300
C2835       C  0.87570551  0.39396110  0.66065919    -0.12700
C2836       C  0.87330022  0.37789298  0.67775876     0.18100
C2837       C  0.87101392  0.36220700  0.65932444    -0.09800
C2838       C  0.87167315  0.36261678  0.62418966    -0.02700
H2839       H  0.87709031  0.40613779  0.67488643     0.04700
C2840       C  0.87325822  0.37752719  0.71488645     0.20100
H2841       H  0.87002769  0.35032241  0.61042969     0.09800
C2842       C  0.85713740  0.37849351  0.73241030    -0.16100
C2843       C  0.85666781  0.37733646  0.76766340     0.02800
C2844       C  0.87259379  0.37547630  0.78574333    -0.11400
C2845       C  0.88868399  0.37446537  0.76800484    -0.01500
C2846       C  0.88907973  0.37521636  0.73283034    -0.06600
H2847       H  0.84489960  0.38004948  0.71857422     0.05800
H2848       H  0.90100150  0.37290662  0.78160183     0.09200
Br2849     Br  0.86652518  0.34000933  0.68122133    -0.06300
Br2850     Br  0.87676744  0.41726793  0.60396293    -0.03300
Br2851     Br  0.83411693  0.37926235  0.78977508    -0.00400
Br2852     Br  0.91140260  0.37247879  0.71021244    -0.04800
C2853       C  0.87216106  0.36903006  0.28532192    -0.12200
C2854       C  0.85836282  0.36209290  0.26509912     0.03300
C2855       C  0.86005659  0.36228990  0.22978184    -0.12700
C2856       C  0.87533548  0.36910773  0.21424357     0.18100
C2857       C  0.88930782  0.37523727  0.23427093    -0.09800
C2858       C  0.88766426  0.37517242  0.26923990    -0.02700
H2859       H  0.84929238  0.35740978  0.21433309     0.04700
C2860       C  0.87646448  0.37038613  0.17715015     0.20100
H2861       H  0.89870954  0.38008694  0.28389667     0.09800
C2862       C  0.87481498  0.38702900  0.16182679    -0.16100
C2863       C  0.87636209  0.38886918  0.12679500     0.02800
C2864       C  0.87955593  0.37385270  0.10659130    -0.11400
C2865       C  0.88139059  0.35725321  0.12209718    -0.01500
C2866       C  0.87997100  0.35545110  0.15708035    -0.06600
H2867       H  0.87220403  0.39860386  0.17722068     0.05800
H2868       H  0.88372803  0.34557630  0.10681802     0.09200
Br2869     Br  0.91104274  0.38370152  0.21493703    -0.06300
Br2870     Br  0.83666624  0.35290904  0.28347164    -0.03300
Br2871     Br  0.87270232  0.41185627  0.10777733    -0.00400
Br2872     Br  0.88312393  0.33242552  0.17635151    -0.04800
C2873       C  0.79454762  0.37946443  0.39157101    -0.12200
C2874       C  0.78310971  0.36764239  0.40848741     0.03300
C2875       C  0.76489417  0.36779609  0.40183761    -0.12700
C2876       C  0.75765776  0.37946313  0.37805925     0.18100
C2877       C  0.76914050  0.39120195  0.36090228    -0.09800
C2878       C  0.78737045  0.39123608  0.36795686    -0.02700
H2879       H  0.75627906  0.35885743  0.41557007     0.04700
C2880       C  0.73812673  0.37938964  0.37219640     0.20100
H2881       H  0.79598964  0.40039645  0.35478572     0.09800
C2882       C  0.72806110  0.39443238  0.38037560    -0.16100
C2883       C  0.70966200  0.39475705  0.37538114     0.02800
C2884       C  0.70086502  0.37973387  0.36230789    -0.11400
C2885       C  0.71089198  0.36455354  0.35494733    -0.01500
C2886       C  0.72929674  0.36431643  0.35954116    -0.06600
H2887       H  0.73456198  0.40598619  0.39082501     0.05800
H2888       H  0.70445380  0.35296595  0.34447775     0.09200
Br2889     Br  0.76066264  0.40699914  0.32679129    -0.06300
Br2890     Br  0.79160551  0.35162646  0.44224591    -0.03300
Br2891     Br  0.69712303  0.41574904  0.38842035    -0.00400
Br2892     Br  0.74189141  0.34338403  0.34635169    -0.04800
C2893       C  0.87064760  0.45424516  0.49018253    -0.12200
C2894       C  0.86973527  0.46594173  0.46248041     0.03300
C2895       C  0.87093586  0.48418969  0.46765046    -0.12700
C2896       C  0.87321978  0.49113794  0.50008575     0.18100
C2897       C  0.87488946  0.47951752  0.52766919    -0.09800
C2898       C  0.87371527  0.46117687  0.52255446    -0.02700
H2899       H  0.86984416  0.49304344  0.44628478     0.04700
C2900       C  0.87237347  0.51052884  0.50474028     0.20100
H2901       H  0.87487635  0.45234372  0.54393248     0.09800
C2902       C  0.85635022  0.51803019  0.51500568    -0.16100
C2903       C  0.85462606  0.53631026  0.51935043     0.02800
C2904       C  0.86938569  0.54764240  0.51370221    -0.11400
C2905       C  0.88529971  0.53995469  0.50209764    -0.01500
C2906       C  0.88682698  0.52162122  0.49750817    -0.06600
H2907       H  0.84503660  0.50953085  0.51964797     0.05800
H2908       H  0.89681884  0.54812802  0.49734561     0.09200
Br2909     Br  0.87879925  0.48818672  0.57255623    -0.06300
Br2910     Br  0.86780726  0.45778734  0.41673216    -0.03300
Br2911     Br  0.83146957  0.54431611  0.53255095    -0.00400
Br2912     Br  0.90899039  0.51218815  0.48219166    -0.04800
C2913       C  0.12754733  0.29737952  0.87588564    -0.12200
C2914       C  0.14245719  0.28852561  0.88916817     0.03300
C2915       C  0.14313410  0.26997730  0.88908995    -0.12700
C2916       C  0.12925554  0.25989311  0.87563255     0.18100
C2917       C  0.11480732  0.26867560  0.86084948    -0.09800
C2918       C  0.11391981  0.28724130  0.86143995    -0.02700
H2919       H  0.15417898  0.26336598  0.90099288     0.04700
C2920       C  0.12878560  0.24051716  0.88196572     0.20100
H2921       H  0.10238460  0.29377053  0.85119218     0.09800
C2922       C  0.12119571  0.23455058  0.91214728    -0.16100
C2923       C  0.12049692  0.21651504  0.91996093     0.02800
C2924       C  0.12708057  0.20380554  0.89686283    -0.11400
C2925       C  0.13512956  0.20988007  0.86687873    -0.01500
C2926       C  0.13610569  0.22806187  0.85946534    -0.06600
H2927       H  0.11604315  0.24407920  0.93011492     0.05800
H2928       H  0.14058650  0.20046571  0.84903614     0.09200
Br2929     Br  0.09575145  0.25571349  0.84064757    -0.06300
Br2930     Br  0.16136759  0.30090519  0.91131171    -0.03300
Br2931     Br  0.11190205  0.21048744  0.96406173    -0.00400
Br2932     Br  0.14770674  0.23538729  0.81873177    -0.04800
C2933       C  0.12196887  0.20015589  0.38130543    -0.12200
C2934       C  0.10660497  0.20877188  0.36965454     0.03300
C2935       C  0.10672070  0.22708255  0.36478192    -0.12700
C2936       C  0.12189251  0.23708607  0.37171811     0.18100
C2937       C  0.13749672  0.22844546  0.38176696    -0.09800
C2938       C  0.13751224  0.21006911  0.38605944    -0.02700
H2939       H  0.09465122  0.23366759  0.35721042     0.04700
C2940       C  0.12031581  0.25651132  0.37382415     0.20100
H2941       H  0.14941754  0.20366583  0.39501262     0.09800
C2942       C  0.11935275  0.26416653  0.40594428    -0.16100
C2943       C  0.11736549  0.28236974  0.40984111     0.02800
C2944       C  0.11633729  0.29335465  0.38119480    -0.11400
C2945       C  0.11741144  0.28574312  0.34887554    -0.01500
C2946       C  0.11912389  0.26734765  0.34504602    -0.06600
H2947       H  0.12018764  0.25588185  0.42817812     0.05800
H2948       H  0.11677361  0.29407617  0.32670310     0.09200
Br2949     Br  0.15873103  0.24139873  0.39171487    -0.06300
Br2950     Br  0.08499519  0.19629702  0.36051230    -0.03300
Br2951     Br  0.11725727  0.29154644  0.45506200    -0.00400
Br2952     Br  0.11999235  0.25753986  0.30041462    -0.04800
C2953       C  0.12888282  0.13265696  0.78094543    -0.12200
C2954       C  0.11305737  0.13369549  0.76218955     0.03300
C2955       C  0.11365382  0.13334140  0.72698078    -0.12700
C2956       C  0.12983890  0.13244307  0.70987093     0.18100
C2957       C  0.14571257  0.13268882  0.72832158    -0.09800
C2958       C  0.14515739  0.13268008  0.76368077    -0.02700
H2959       H  0.10142233  0.13382154  0.71281611     0.04700
C2960       C  0.12970373  0.13142244  0.67272352     0.20100
H2961       H  0.15743777  0.13216321  0.77766837     0.09800
C2962       C  0.13029139  0.14707935  0.65402015    -0.16100
C2963       C  0.12911027  0.14669559  0.61882826     0.02800
C2964       C  0.12738234  0.13030522  0.60173169    -0.11400
C2965       C  0.12654726  0.11465600  0.62072046    -0.01500
C2966       C  0.12773247  0.11512425  0.65593355    -0.06600
H2967       H  0.13137540  0.15968131  0.66694813     0.05800
H2968       H  0.12530477  0.10198089  0.60811705     0.09200
Br2969     Br  0.16830531  0.13275007  0.70616901    -0.06300
Br2970     Br  0.09033590  0.13684519  0.78306559    -0.03300
Br2971     Br  0.12870820  0.16913290  0.59613280    -0.00400
Br2972     Br  0.12674465  0.09320735  0.68014833    -0.04800
C2973       C  0.12264873  0.12188291  0.28023044    -0.12200
C2974       C  0.10670822  0.11944163  0.26215607     0.03300
C2975       C  0.10703128  0.11835341  0.22699613    -0.12700
C2976       C  0.12292875  0.11999427  0.20919066     0.18100
C2977       C  0.13875628  0.12307857  0.22679205    -0.09800
C2978       C  0.13856291  0.12388603  0.26208736    -0.02700
H2979       H  0.09473997  0.11662889  0.21335440     0.04700
C2980       C  0.12241086  0.12001234  0.17209784     0.20100
H2981       H  0.15090718  0.12594950  0.27536581     0.09800
C2982       C  0.12046158  0.13620041  0.15556123    -0.16100
C2983       C  0.11986034  0.13695982  0.12044105     0.02800
C2984       C  0.12120147  0.12124537  0.10123823    -0.11400
C2985       C  0.12262483  0.10494695  0.11792265    -0.01500
C2986       C  0.12328241  0.10425314  0.15320448    -0.06600
H2987       H  0.11943185  0.14831322  0.17011393     0.05800
H2988       H  0.12377982  0.09281010  0.10349381     0.09200
Br2989     Br  0.16076878  0.12651783  0.20342574    -0.06300
Br2990     Br  0.08384253  0.11902066  0.28329214    -0.03300
Br2991     Br  0.11655728  0.15981563  0.10035120    -0.00400
Br2992     Br  0.12576127  0.08165967  0.17455935    -0.04800
C2993       C  0.37761377  0.20287276  0.85933589    -0.12200
C2994       C  0.36179380  0.21285392  0.85824527     0.03300
C2995       C  0.36252792  0.23134130  0.86065059    -0.12700
C2996       C  0.37876893  0.24015794  0.86367147     0.18100
C2997       C  0.39445096  0.23027344  0.86579927    -0.09800
C2998       C  0.39377431  0.21185451  0.86373269    -0.02700
H2999       H  0.35044146  0.23894082  0.85854177     0.04700
C3000       C  0.37930178  0.25962733  0.86111636     0.20100
H3001       H  0.40606642  0.20452641  0.86481480     0.09800
C3002       C  0.37402923  0.27015466  0.88856401    -0.16100
C3003       C  0.37451364  0.28868428  0.88642588     0.02800
C3004       C  0.38068017  0.29683822  0.85657830    -0.11400
C3005       C  0.38575800  0.28615382  0.82914454    -0.01500
C3006       C  0.38488274  0.26776483  0.83103964    -0.06600
H3007       H  0.36954905  0.26393099  0.91167508     0.05800
H3008       H  0.39004864  0.29215796  0.80567950     0.09200
Br3009     Br  0.41717840  0.24140214  0.87022740    -0.06300
Br3010     Br  0.33900621  0.20252675  0.84992632    -0.03300
Br3011     Br  0.36716315  0.30205902  0.92519504    -0.00400
Br3012     Br  0.39081298  0.25429574  0.79143108    -0.04800
C3013       C  0.29942257  0.11910895  0.87472288    -0.12200
C3014       C  0.29014227  0.10420575  0.88687621     0.03300
C3015       C  0.27163823  0.10464391  0.88943546    -0.12700
C3016       C  0.26208512  0.11971185  0.87969181     0.18100
C3017       C  0.27140739  0.13472580  0.86825930    -0.09800
C3018       C  0.28988226  0.13437493  0.86615260    -0.02700
H3019       H  0.26465631  0.09318146  0.89909564     0.04700
C3020       C  0.24250559  0.11983555  0.88294086     0.20100
H3021       H  0.29676939  0.14584093  0.85624093     0.09800
C3022       C  0.23459475  0.13173778  0.90558804    -0.16100
C3023       C  0.21623460  0.13221038  0.90975626     0.02800
C3024       C  0.20541595  0.12032526  0.89172999    -0.11400
C3025       C  0.21323666  0.10836436  0.86909187    -0.01500
C3026       C  0.23163799  0.10820812  0.86424893    -0.06600
H3027       H  0.24278013  0.14065352  0.92026302     0.05800
H3028       H  0.20501162  0.09920546  0.85506032     0.09200
Br3029     Br  0.25946720  0.15560247  0.85294685    -0.06300
Br3030     Br  0.30216090  0.08326630  0.90160926    -0.03300
Br3031     Br  0.20662695  0.14878424  0.94164337    -0.00400
Br3032     Br  0.24122896  0.09236506  0.83105744    -0.04800
C3033       C  0.37772214  0.20167971  0.36284385    -0.12200
C3034       C  0.36928137  0.20984220  0.39071950     0.03300
C3035       C  0.36924191  0.22838206  0.39365534    -0.12700
C3036       C  0.37743771  0.23903433  0.36915605     0.18100
C3037       C  0.38590894  0.23093175  0.34154916    -0.09800
C3038       C  0.38609516  0.21250327  0.33870654    -0.02700
H3039       H  0.36272679  0.23453052  0.41504796     0.04700
C3040       C  0.37656674  0.25859101  0.37164425     0.20100
H3041       H  0.39250262  0.20661438  0.31692561     0.09800
C3042       C  0.39170880  0.26820852  0.38092312    -0.16100
C3043       C  0.39199354  0.28673963  0.37901509     0.02800
C3044       C  0.37694598  0.29594518  0.36758100    -0.11400
C3045       C  0.36151478  0.28630179  0.36004548    -0.01500
C3046       C  0.36126465  0.26779887  0.36186266    -0.06600
H3047       H  0.40349438  0.26123428  0.38882139     0.05800
H3048       H  0.34984839  0.29311939  0.35106497     0.09200
Br3049     Br  0.39668318  0.24457224  0.30616909    -0.06300
Br3050     Br  0.35837317  0.19651661  0.42632799    -0.03300
Br3051     Br  0.41305278  0.29885819  0.39305776    -0.00400
Br3052     Br  0.34017558  0.25553776  0.34836194    -0.04800
C3053       C  0.36557004  0.12408443  0.47646842    -0.12200
C3054       C  0.35961062  0.10896589  0.49391611     0.03300
C3055       C  0.36082895  0.10826606  0.52906294    -0.12700
C3056       C  0.36791015  0.12250616  0.54721587     0.18100
C3057       C  0.37325286  0.13790748  0.52996279    -0.09800
C3058       C  0.37201903  0.13862122  0.49474648    -0.02700
H3059       H  0.35634713  0.09654160  0.54228554     0.04700
C3060       C  0.36932172  0.12115652  0.58421277     0.20100
H3061       H  0.37682005  0.15022244  0.48152620     0.09800
C3062       C  0.38347074  0.11192056  0.59864740    -0.16100
C3063       C  0.38524756  0.11066458  0.63382217     0.02800
C3064       C  0.37281285  0.11920390  0.65519836    -0.11400
C3065       C  0.35832008  0.12787627  0.64005562    -0.01500
C3066       C  0.35644038  0.12871694  0.60515705    -0.06600
H3067       H  0.39318291  0.10565788  0.58240794     0.05800
H3068       H  0.34816768  0.13407587  0.65534108     0.09200
Br3069     Br  0.38295200  0.15791179  0.55341036    -0.06300
Br3070     Br  0.34948480  0.08907759  0.47076664    -0.03300
Br3071     Br  0.40481286  0.09697404  0.65007489    -0.00400
Br3072     Br  0.33576412  0.13993778  0.58716401    -0.04800
C3073       C  0.38347298  0.12082907  0.15693461    -0.12200
C3074       C  0.37931775  0.10575489  0.13747952     0.03300
C3075       C  0.37844844  0.10707430  0.10220071    -0.12700
C3076       C  0.38145125  0.12331306  0.08599970     0.18100
C3077       C  0.38565869  0.13831854  0.10537893    -0.09800
C3078       C  0.38667624  0.13698909  0.14048191    -0.02700
H3079       H  0.37508542  0.09549258  0.08738562     0.04700
C3080       C  0.38042119  0.12442435  0.04882400     0.20100
H3081       H  0.38953704  0.14876945  0.15513663     0.09800
C3082       C  0.36417434  0.12795462  0.03319138    -0.16100
C3083       C  0.36294395  0.12920894  0.99791695     0.02800
C3084       C  0.37827803  0.12705943  0.97775023    -0.11400
C3085       C  0.39451602  0.12367085  0.99383300    -0.01500
C3086       C  0.39564190  0.12227457  0.02888756    -0.06600
H3087       H  0.35237620  0.12953170  0.04849911     0.05800
H3088       H  0.40645369  0.12188473  0.97900886     0.09200
Br3089     Br  0.38948406  0.16100405  0.08492587    -0.06300
Br3090     Br  0.37297827  0.08364423  0.15793883    -0.03300
Br3091     Br  0.33981657  0.13248525  0.97903620    -0.00400
Br3092     Br  0.41819580  0.11704192  0.04854878    -0.04800
C3093       C  0.20181901  0.11800263  0.38186625    -0.12200
C3094       C  0.21058559  0.10367277  0.36647284     0.03300
C3095       C  0.22904290  0.10407857  0.36268356    -0.12700
C3096       C  0.23909696  0.11831264  0.37528901     0.18100
C3097       C  0.23018904  0.13264078  0.39066548    -0.09800
C3098       C  0.21174150  0.13250661  0.39323149    -0.02700
H3099       H  0.23559437  0.09316473  0.35008952     0.04700
C3100       C  0.25870327  0.11832853  0.37121572     0.20100
H3101       H  0.20516425  0.14340486  0.40587678     0.09800
C3102       C  0.26679899  0.13226579  0.35354595    -0.16100
C3103       C  0.28516299  0.13290076  0.34905065     0.02800
C3104       C  0.29589192  0.11925918  0.36193768    -0.11400
C3105       C  0.28782413  0.10511175  0.37901393    -0.01500
C3106       C  0.26943884  0.10460613  0.38396975    -0.06600
H3107       H  0.25873219  0.14264631  0.34278849     0.05800
H3108       H  0.29588752  0.09444198  0.38870317     0.09200
Br3109     Br  0.24250028  0.15208085  0.41126242    -0.06300
Br3110     Br  0.19786121  0.08352106  0.34969821    -0.03300
Br3111     Br  0.29466094  0.15201904  0.32280491    -0.00400
Br3112     Br  0.25984551  0.08511226  0.40910219    -0.04800
C3113       C  0.37610617  0.79614047  0.63420623    -0.12200
C3114       C  0.36126550  0.78533446  0.64129950     0.03300
C3115       C  0.36227030  0.76699035  0.63632482    -0.12700
C3116       C  0.37791641  0.75907805  0.62471009     0.18100
C3117       C  0.39251291  0.76985940  0.61655174    -0.09800
C3118       C  0.39154875  0.78817668  0.62143850    -0.02700
H3119       H  0.35108350  0.75874952  0.64320307     0.04700
C3120       C  0.37942437  0.73954153  0.62520483     0.20100
H3121       H  0.40305874  0.79622181  0.61577025     0.09800
C3122       C  0.37072545  0.72917227  0.60088347    -0.16100
C3123       C  0.37139908  0.71058327  0.60213350     0.02800
C3124       C  0.38080054  0.70213530  0.62834169    -0.11400
C3125       C  0.38970385  0.71272364  0.65215318    -0.01500
C3126       C  0.38900925  0.73112731  0.65090072    -0.06600
H3127       H  0.36339633  0.73556811  0.58089220     0.05800
H3128       H  0.39680102  0.70667762  0.67283634     0.09200
Br3129     Br  0.41420837  0.76002454  0.59969066    -0.06300
Br3130     Br  0.34004006  0.79441057  0.66156540    -0.03300
Br3131     Br  0.36001080  0.69762907  0.56662418    -0.00400
Br3132     Br  0.40062732  0.74413931  0.68617128    -0.04800
C3133       C  0.36959193  0.04594073  0.76417800    -0.12200
C3134       C  0.37593988  0.03860439  0.73373815     0.03300
C3135       C  0.37644534  0.02014694  0.72968680    -0.12700
C3136       C  0.36977947  0.00873770  0.75480161     0.18100
C3137       C  0.36272269  0.01618742  0.78454925    -0.09800
C3138       C  0.36291420  0.03450153  0.78913636    -0.02700
H3139       H  0.38165891  0.01467530  0.70641907     0.04700
C3140       C  0.36960335  0.98923495  0.74915462     0.20100
H3141       H  0.35775131  0.03982902  0.81257910     0.09800
C3142       C  0.37790987  0.97790647  0.77237368    -0.16100
C3143       C  0.37727410  0.95942898  0.76852649     0.02800
C3144       C  0.36866798  0.95191879  0.74028338    -0.11400
C3145       C  0.36037933  0.96335684  0.71721126    -0.01500
C3146       C  0.36070718  0.98170833  0.72143380    -0.06600
H3147       H  0.38469846  0.98347689  0.79397521     0.05800
H3148       H  0.35369826  0.95802994  0.69527295     0.09200
Br3149     Br  0.35165763  0.00217524  0.81908586    -0.06300
Br3150     Br  0.38222938  0.05307261  0.69577998    -0.03300
Br3151     Br  0.38720749  0.94532612  0.80393769    -0.00400
Br3152     Br  0.34813082  0.99571960  0.68903272    -0.04800
C3153       C  0.37837560  0.79323665  0.13609371    -0.12200
C3154       C  0.37740511  0.78653760  0.10284078     0.03300
C3155       C  0.37838326  0.76819099  0.09710031    -0.12700
C3156       C  0.38013866  0.75633808  0.12414710     0.18100
C3157       C  0.38080170  0.76304703  0.15728928    -0.09800
C3158       C  0.38009182  0.78128840  0.16297572    -0.02700
H3159       H  0.37787006  0.76316186  0.07150467     0.04700
C3160       C  0.38120087  0.73697382  0.11811161     0.20100
H3161       H  0.38072821  0.78617598  0.18867609     0.09800
C3162       C  0.39751482  0.72839554  0.12156356    -0.16100
C3163       C  0.39855784  0.70987971  0.12274714     0.02800
C3164       C  0.38289525  0.69949621  0.12109015    -0.11400
C3165       C  0.36678399  0.70823165  0.11469320    -0.01500
C3166       C  0.36587952  0.72673973  0.11314566    -0.06600
H3167       H  0.40944383  0.73619503  0.12471996     0.05800
H3168       H  0.35459035  0.70075561  0.11281004     0.09200
Br3169     Br  0.38223833  0.74770864  0.19574071    -0.06300
Br3170     Br  0.37580119  0.80187239  0.06443978    -0.03300
Br3171     Br  0.42185335  0.69995561  0.12695080    -0.00400
Br3172     Br  0.34321327  0.73756216  0.10683571    -0.04800
C3173       C  0.37733054  0.86550541  0.02225161    -0.12200
C3174       C  0.39362354  0.86327365  0.00523463     0.03300
C3175       C  0.39447040  0.86495102  0.97018287    -0.12700
C3176       C  0.37926061  0.86871313  0.95152046     0.18100
C3177       C  0.36277112  0.86972328  0.96810081    -0.09800
C3178       C  0.36190581  0.86820559  0.00331034    -0.02700
H3179       H  0.40709183  0.86350540  0.95742896     0.04700
C3180       C  0.38083863  0.87100202  0.91465130     0.20100
H3181       H  0.34926906  0.86971892  0.01596567     0.09800
C3182       C  0.38441068  0.85616993  0.89460983    -0.16100
C3183       C  0.38506600  0.85758609  0.85952717     0.02800
C3184       C  0.38198421  0.87405211  0.84392433    -0.11400
C3185       C  0.37952133  0.88913948  0.86405340    -0.01500
C3186       C  0.37902555  0.88771363  0.89931496    -0.06600
H3187       H  0.38641693  0.84338606  0.90630662     0.05800
H3188       H  0.37739266  0.90190023  0.85235650     0.09200
Br3189     Br  0.34118563  0.87296665  0.94352132    -0.06300
Br3190     Br  0.41504028  0.85728420  0.02841080    -0.03300
Br3191     Br  0.39070076  0.83669691  0.83407231    -0.00400
Br3192     Br  0.37596457  0.90881966  0.92565092    -0.04800
C3193       C  0.36802668  0.87319864  0.52359755    -0.12200
C3194       C  0.36349184  0.88878326  0.50614539     0.03300
C3195       C  0.36447757  0.88929256  0.47093685    -0.12700
C3196       C  0.37005114  0.87446756  0.45253663     0.18100
C3197       C  0.37462122  0.85885289  0.46990595    -0.09800
C3198       C  0.37333886  0.85823946  0.50519371    -0.02700
H3199       H  0.36082075  0.90130002  0.45781597     0.04700
C3200       C  0.37060165  0.87551199  0.41525142     0.20100
H3201       H  0.37729183  0.84634546  0.51836530     0.09800
C3202       C  0.38273951  0.88684772  0.39929981    -0.16100
C3203       C  0.38358881  0.88806019  0.36396434     0.02800
C3204       C  0.37193753  0.87777843  0.34383195    -0.11400
C3205       C  0.35946889  0.86687282  0.36043951    -0.01500
C3206       C  0.35870076  0.86574176  0.39549180    -0.06600
H3207       H  0.39174102  0.89467127  0.41448510     0.05800
H3208       H  0.35013856  0.85895762  0.34621865     0.09200
Br3209     Br  0.38375183  0.83849229  0.44664887    -0.06300
Br3210     Br  0.35545616  0.90962516  0.52927821    -0.03300
Br3211     Br  0.40102157  0.90396861  0.34583188    -0.00400
Br3212     Br  0.34073545  0.85095206  0.41513119    -0.04800
C3213       C  0.37014255  0.04449597  0.26341574    -0.12200
C3214       C  0.38183133  0.03592938  0.24057870     0.03300
C3215       C  0.38071860  0.01755628  0.23561077    -0.12700
C3216       C  0.36824633  0.00723688  0.25299271     0.18100
C3217       C  0.35669039  0.01556048  0.27584607    -0.09800
C3218       C  0.35765279  0.03389572  0.28076538    -0.02700
H3219       H  0.38966520  0.01122925  0.21791993     0.04700
C3220       C  0.36742738  0.98786505  0.24659117     0.20100
H3221       H  0.34858195  0.03981198  0.29871544     0.09800
C3222       C  0.37361079  0.97600349  0.27106280    -0.16100
C3223       C  0.37353272  0.95766497  0.26520675     0.02800
C3224       C  0.36729489  0.95085381  0.23413462    -0.11400
C3225       C  0.36078428  0.96284930  0.21004146    -0.01500
C3226       C  0.36079871  0.98110758  0.21603009    -0.06600
H3227       H  0.37852068  0.98105674  0.29487227     0.05800
H3228       H  0.35585882  0.95804487  0.18605996     0.09200
Br3229     Br  0.33910061  0.00247993  0.30044699    -0.06300
Br3230     Br  0.39935457  0.04810649  0.21435439    -0.03300
Br3231     Br  0.38109100  0.94274132  0.30144131    -0.00400
Br3232     Br  0.35128660  0.99630691  0.18191357    -0.04800
C3233       C  0.12088965  0.79670810  0.60925184    -0.12200
C3234       C  0.13615250  0.78687281  0.60062953     0.03300
C3235       C  0.13599828  0.76838195  0.60323993    -0.12700
C3236       C  0.12085042  0.75934368  0.61429501     0.18100
C3237       C  0.10588927  0.76913246  0.62432606    -0.09800
C3238       C  0.10594048  0.78762579  0.62150273    -0.02700
H3239       H  0.14748535  0.76094619  0.59506128     0.04700
C3240       C  0.12022574  0.73978982  0.61107799     0.20100
H3241       H  0.09415575  0.79492936  0.62846130     0.09800
C3242       C  0.12895935  0.72899600  0.63449522    -0.16100
C3243       C  0.12928406  0.71048756  0.63057038     0.02800
C3244       C  0.12086097  0.70249782  0.60251058    -0.11400
C3245       C  0.11195143  0.71349974  0.57949010    -0.01500
C3246       C  0.11165817  0.73186739  0.58346414    -0.06600
H3247       H  0.13556634  0.73500262  0.65587668     0.05800
H3248       H  0.10554892  0.70785312  0.55753360     0.09200
Br3249     Br  0.08498559  0.75767046  0.64113024    -0.06300
Br3250     Br  0.15692699  0.79763274  0.58160464    -0.03300
Br3251     Br  0.14073297  0.69697365  0.66511561    -0.00400
Br3252     Br  0.10008172  0.74572118  0.54949686    -0.04800
C3253       C  0.12821592  0.95399142  0.51682973    -0.12200
C3254       C  0.11828639  0.96246666  0.49137231     0.03300
C3255       C  0.11828449  0.98100113  0.48917507    -0.12700
C3256       C  0.12822979  0.99143245  0.51159687     0.18100
C3257       C  0.13818267  0.98304020  0.53680978    -0.09800
C3258       C  0.13808265  0.96460274  0.53926436    -0.02700
H3259       H  0.11074548  0.98733468  0.46938887     0.04700
C3260       C  0.12895886  0.01091807  0.50704668     0.20100
H3261       H  0.14573996  0.95856534  0.55920756     0.09800
C3262       C  0.12232078  0.02228006  0.53222786    -0.16100
C3263       C  0.12340108  0.04075622  0.52875103     0.02800
C3264       C  0.13096440  0.04813810  0.49933063    -0.11400
C3265       C  0.13768107  0.03663723  0.47442658    -0.01500
C3266       C  0.13681705  0.01830371  0.47810033    -0.06600
H3267       H  0.11651022  0.01673402  0.55489780     0.05800
H3268       H  0.14353936  0.04191228  0.45157171     0.09200
Br3269     Br  0.15276463  0.99608602  0.56771197    -0.06300
Br3270     Br  0.10545258  0.94970606  0.45744277    -0.03300
Br3271     Br  0.11565143  0.05508101  0.56593705    -0.00400
Br3272     Br  0.14726485  0.00396620  0.44332049    -0.04800
C3273       C  0.20078384  0.87859338  0.61743180    -0.12200
C3274       C  0.20906457  0.89096736  0.63882905     0.03300
C3275       C  0.22755264  0.89090144  0.64235363    -0.12700
C3276       C  0.23808182  0.87881108  0.62425154     0.18100
C3277       C  0.22970152  0.86635719  0.60304410    -0.09800
C3278       C  0.21123247  0.86622128  0.60008336    -0.02700
H3279       H  0.23374770  0.90034831  0.65920067     0.04700
C3280       C  0.25766903  0.87893963  0.62849659     0.20100
H3281       H  0.20503630  0.85684203  0.58308212     0.09800
C3282       C  0.26595702  0.86415028  0.64280094    -0.16100
C3283       C  0.28434081  0.86362712  0.64716454     0.02800
C3284       C  0.29490039  0.87817048  0.63722698    -0.11400
C3285       C  0.28659136  0.89307445  0.62336245    -0.01500
C3286       C  0.26819627  0.89352149  0.61876710    -0.06600
H3287       H  0.25801822  0.85299471  0.65099079     0.05800
H3288       H  0.29447136  0.90441484  0.61592614     0.09200
Br3289     Br  0.24294985  0.85002897  0.57580753    -0.06300
Br3290     Br  0.19553607  0.90780265  0.66431948    -0.03300
Br3291     Br  0.29400614  0.84327253  0.66933969    -0.00400
Br3292     Br  0.25822430  0.91416060  0.59823056    -0.04800
C3293       C  0.11826004  0.70295755  0.11049884    -0.12200
C3294       C  0.12687678  0.71086231  0.13834448     0.03300
C3295       C  0.12757104  0.72936405  0.14121554    -0.12700
C3296       C  0.11982699  0.74022264  0.11672691     0.18100
C3297       C  0.11124502  0.73241901  0.08902001    -0.09800
C3298       C  0.11033869  0.71405093  0.08635173    -0.02700
H3299       H  0.13421341  0.73532544  0.16260596     0.04700
C3300       C  0.12130592  0.75966642  0.11946496     0.20100
H3301       H  0.10398651  0.70845964  0.06430265     0.09800
C3302       C  0.13752805  0.76783897  0.11209159    -0.16100
C3303       C  0.13883428  0.78628905  0.10954146     0.02800
C3304       C  0.12368296  0.79688781  0.11503535    -0.11400
C3305       C  0.10768425  0.78858495  0.12408222    -0.01500
C3306       C  0.10638955  0.77019334  0.12621390    -0.06600
H3307       H  0.14900984  0.75976777  0.10652121     0.05800
H3308       H  0.09592451  0.79643765  0.12854635     0.09200
Br3309     Br  0.10159917  0.74626354  0.05286755    -0.06300
Br3310     Br  0.13734525  0.69736348  0.17384490    -0.03300
Br3311     Br  0.16108283  0.79576871  0.09457029    -0.00400
Br3312     Br  0.08377899  0.76001703  0.13700095    -0.04800
C3313       C  0.12514138  0.87398178  0.72666382    -0.12200
C3314       C  0.12751930  0.85825733  0.74531407     0.03300
C3315       C  0.12679004  0.85876333  0.78068473    -0.12700
C3316       C  0.12359757  0.87469813  0.79784894     0.18100
C3317       C  0.12151978  0.89038590  0.77940277    -0.09800
C3318       C  0.12223183  0.88993601  0.74420665    -0.02700
H3319       H  0.12848812  0.84664933  0.79486916     0.04700
C3320       C  0.12317380  0.87497347  0.83507646     0.20100
H3321       H  0.12047434  0.90217910  0.73044924     0.09800
C3322       C  0.13916662  0.87641150  0.85248767    -0.16100
C3323       C  0.13941050  0.87744631  0.88766301     0.02800
C3324       C  0.12337894  0.87682503  0.90615390    -0.11400
C3325       C  0.10731338  0.87570638  0.88858238    -0.01500
C3326       C  0.10713021  0.87474408  0.85325800    -0.06600
H3327       H  0.15151660  0.87702041  0.83855844     0.05800
H3328       H  0.09492009  0.87511864  0.90235844     0.09200
Br3329     Br  0.11784060  0.91273860  0.80138352    -0.06300
Br3330     Br  0.13046647  0.83559055  0.72410241    -0.03300
Br3331     Br  0.16202549  0.88083615  0.90868540    -0.00400
Br3332     Br  0.08476957  0.87286534  0.83082994    -0.04800
C3333       C  0.13260616  0.87732837  0.22738930    -0.12200
C3334       C  0.13587349  0.86248445  0.24817472     0.03300
C3335       C  0.13521359  0.86432381  0.28344032    -0.12700
C3336       C  0.13158084  0.88076026  0.29844465     0.18100
C3337       C  0.12934422  0.89567714  0.27795466    -0.09800
C3338       C  0.12972040  0.89388157  0.24289802    -0.02700
H3339       H  0.13711716  0.85280498  0.29924001     0.04700
C3340       C  0.12942059  0.88210036  0.33542527     0.20100
H3341       H  0.12755869  0.90555745  0.22765011     0.09800
C3342       C  0.14422823  0.88544925  0.35558586    -0.16100
C3343       C  0.14254482  0.88665005  0.39068146     0.02800
C3344       C  0.12586572  0.88411765  0.40615973    -0.11400
C3345       C  0.11091022  0.88168150  0.38578858    -0.01500
C3346       C  0.11259715  0.88070694  0.35061174    -0.06600
H3347       H  0.15710761  0.88719189  0.34395679     0.05800
H3348       H  0.09801725  0.87980604  0.39728534     0.09200
Br3349     Br  0.12550285  0.91872236  0.29698253    -0.06300
Br3350     Br  0.14014243  0.83921480  0.23043932    -0.03300
Br3351     Br  0.16327193  0.89258936  0.41624692    -0.00400
Br3352     Br  0.09169412  0.87708926  0.32415238    -0.04800
C3353       C  0.12945235  0.95186839  0.01089321    -0.12200
C3354       C  0.14428566  0.96091878  0.99765377     0.03300
C3355       C  0.14396969  0.97939007  0.99451479    -0.12700
C3356       C  0.12920749  0.98923443  0.00507252     0.18100
C3357       C  0.11438538  0.98019721  0.01824704    -0.09800
C3358       C  0.11453848  0.96170479  0.02071789    -0.02700
H3359       H  0.15534008  0.98613459  0.98384391     0.04700
C3360       C  0.12928451  0.00879835  0.00094666     0.20100
H3361       H  0.10321199  0.95503669  0.03174288     0.09800
C3362       C  0.11709816  0.01661666  0.97889344    -0.16100
C3363       C  0.11704159  0.03492232  0.97355833     0.02800
C3364       C  0.12962844  0.04576141  0.98979592    -0.11400
C3365       C  0.14187602  0.03799744  0.01173163    -0.01500
C3366       C  0.14161275  0.01971947  0.01780038    -0.06600
H3367       H  0.10765380  0.00839979  0.96555164     0.05800
H3368       H  0.15152404  0.04621642  0.02452192     0.09200
Br3369     Br  0.09408632  0.99257877  0.03530478    -0.06300
Br3370     Br  0.16513504  0.94872196  0.98263661    -0.03300
Br3371     Br  0.10004179  0.04434409  0.94255556    -0.00400
Br3372     Br  0.15779550  0.01046868  0.05047089    -0.04800
C3373       C  0.29792130  0.87578081  0.12434631    -0.12200
C3374       C  0.28648216  0.86642810  0.14611447     0.03300
C3375       C  0.26822380  0.86708644  0.14118554    -0.12700
C3376       C  0.26102588  0.87713496  0.11498194     0.18100
C3377       C  0.27241632  0.88649049  0.09310869    -0.09800
C3378       C  0.29078033  0.88577199  0.09792498    -0.02700
H3379       H  0.25954002  0.86005471  0.15838114     0.04700
C3380       C  0.24156377  0.87806328  0.11201862     0.20100
H3381       H  0.29946464  0.89323620  0.08142465     0.09800
C3382       C  0.23268073  0.89330099  0.12307177    -0.16100
C3383       C  0.21416433  0.89414723  0.12257833     0.02800
C3384       C  0.20425566  0.87947298  0.11118379    -0.11400
C3385       C  0.21321861  0.86417399  0.10054897    -0.01500
C3386       C  0.23169724  0.86341947  0.10072818    -0.06600
H3387       H  0.24018972  0.90449136  0.13245979     0.05800
H3388       H  0.20582590  0.85293264  0.09103477     0.09200
Br3389     Br  0.26345121  0.90043476  0.05664095    -0.06300
Br3390     Br  0.29497139  0.85360231  0.18450767    -0.03300
Br3391     Br  0.20309383  0.91524979  0.13930506    -0.00400
Br3392     Br  0.24294124  0.84237068  0.08418466    -0.04800
C3393       C  0.54868180  0.13007228  0.75908278    -0.12200
C3394       C  0.53895394  0.14520762  0.74947211     0.03300
C3395       C  0.52041602  0.14437848  0.74719254    -0.12700
C3396       C  0.51114661  0.12872087  0.75471754     0.18100
C3397       C  0.52089908  0.11340350  0.76255298    -0.09800
C3398       C  0.53941688  0.11415085  0.76447318    -0.02700
H3399       H  0.51312361  0.15620397  0.74064923     0.04700
C3400       C  0.49142840  0.12900587  0.75731713     0.20100
H3401       H  0.54652360  0.10238811  0.77207382     0.09800
C3402       C  0.48093857  0.11913923  0.73481236    -0.16100
C3403       C  0.46235681  0.11863436  0.73800270     0.02800
C3404       C  0.45385084  0.12821391  0.76418048    -0.11400
C3405       C  0.46453251  0.13826537  0.78621056    -0.01500
C3406       C  0.48296331  0.13871073  0.78304021    -0.06600
H3407       H  0.48726173  0.11172615  0.71471266     0.05800
H3408       H  0.45856679  0.14562672  0.80677197     0.09200
Br3409     Br  0.50950138  0.09146376  0.77362814    -0.06300
Br3410     Br  0.55017404  0.16734326  0.73898749    -0.03300
Br3411     Br  0.44955205  0.10521431  0.70499322    -0.00400
Br3412     Br  0.49600057  0.15217906  0.81578241    -0.04800
C3413       C  0.62093556  0.20595425  0.86410101    -0.12200
C3414       C  0.61673088  0.21844076  0.83880377     0.03300
C3415       C  0.61779859  0.23654261  0.84569176    -0.12700
C3416       C  0.62311791  0.24276087  0.87735988     0.18100
C3417       C  0.62721990  0.23048344  0.90282671    -0.09800
C3418       C  0.62620638  0.21223703  0.89603600    -0.02700
H3419       H  0.61481791  0.24591669  0.82584756     0.04700
C3420       C  0.62472707  0.26217592  0.88191523     0.20100
H3421       H  0.62953401  0.20293578  0.91577645     0.09800
C3422       C  0.60951489  0.27208527  0.88917401    -0.16100
C3423       C  0.60942446  0.29050497  0.88502314     0.02800
C3424       C  0.62462821  0.29926375  0.87262784    -0.11400
C3425       C  0.64028152  0.28949204  0.86827141    -0.01500
C3426       C  0.64040490  0.27109723  0.87284054    -0.06600
H3427       H  0.59744188  0.26538038  0.89663127     0.05800
H3428       H  0.65219153  0.29599960  0.85935369     0.09200
Br3429     Br  0.63436373  0.23806042  0.94689766    -0.06300
Br3430     Br  0.61092745  0.21196304  0.79329370    -0.03300
Br3431     Br  0.58828857  0.30307899  0.89697367    -0.00400
Br3432     Br  0.66191309  0.25845017  0.86409282    -0.04800
C3433       C  0.45423794  0.12694762  0.26768311    -0.12200
C3434       C  0.46272425  0.14241906  0.25576216     0.03300
C3435       C  0.48114749  0.14282589  0.25183929    -0.12700
C3436       C  0.49147254  0.12800131  0.25943026     0.18100
C3437       C  0.48302541  0.11227830  0.26979453    -0.09800
C3438       C  0.46454891  0.11179522  0.27355701    -0.02700
H3439       H  0.48752992  0.15499114  0.24395586     0.04700
C3440       C  0.51093107  0.13012503  0.26192091     0.20100
H3441       H  0.45832879  0.09980614  0.28276712     0.09800
C3442       C  0.51770546  0.13773554  0.29134702    -0.16100
C3443       C  0.53591143  0.13924106  0.29649779     0.02800
C3444       C  0.54795658  0.13313235  0.27160375    -0.11400
C3445       C  0.54108470  0.12587224  0.24159319    -0.01500
C3446       C  0.52272504  0.12448059  0.23653194    -0.06600
H3447       H  0.50869245  0.14207184  0.31101280     0.05800
H3448       H  0.55001007  0.12114114  0.22213779     0.09200
Br3449     Br  0.49636539  0.09162060  0.28150962    -0.06300
Br3450     Br  0.44989617  0.16337934  0.24402612    -0.03300
Br3451     Br  0.54298795  0.14811834  0.33980825    -0.00400
Br3452     Br  0.51429103  0.11488615  0.19477250    -0.04800
C3453       C  0.62650335  0.20169363  0.37381337    -0.12200
C3454       C  0.64214707  0.21160650  0.36826930     0.03300
C3455       C  0.64146888  0.23013672  0.36793556    -0.12700
C3456       C  0.62543561  0.23906455  0.37280909     0.18100
C3457       C  0.61006958  0.22932742  0.38021628    -0.09800
C3458       C  0.61068703  0.21084003  0.38074199    -0.02700
H3459       H  0.65331659  0.23760550  0.36192738     0.04700
C3460       C  0.62454330  0.25826035  0.36603239     0.20100
H3461       H  0.59853492  0.20354369  0.38506349     0.09800
C3462       C  0.61903530  0.26387153  0.33410502    -0.16100
C3463       C  0.61821164  0.28185844  0.32614500     0.02800
C3464       C  0.62279226  0.29470848  0.35063845    -0.11400
C3465       C  0.62848686  0.28898029  0.38259488    -0.01500
C3466       C  0.62936338  0.27090638  0.39036138    -0.06600
H3467       H  0.61559800  0.25414449  0.31507760     0.05800
H3468       H  0.63206862  0.29858680  0.40172742     0.09200
Br3469     Br  0.58781666  0.24080203  0.38811670    -0.06300
Br3470     Br  0.66431094  0.20095166  0.35639403    -0.03300
Br3471     Br  0.61210614  0.28774346  0.28053950    -0.00400
Br3472     Br  0.63691207  0.26391915  0.43448902    -0.04800
C3473       C  0.62911806  0.12152835  0.48058224    -0.12200
C3474       C  0.62750773  0.10545929  0.49867488     0.03300
C3475       C  0.62679570  0.10568001  0.53383700    -0.12700
C3476       C  0.62722541  0.12163856  0.55163575     0.18100
C3477       C  0.62872582  0.13769673  0.53390988    -0.09800
C3478       C  0.62989256  0.13753552  0.49861702    -0.02700
H3479       H  0.62573776  0.09329861  0.54745737     0.04700
C3480       C  0.62656350  0.12099052  0.58876823     0.20100
H3481       H  0.63080303  0.14998103  0.48519775     0.09800
C3482       C  0.64183394  0.11609409  0.60631008    -0.16100
C3483       C  0.64169222  0.11489213  0.64146459     0.02800
C3484       C  0.62606543  0.11867483  0.65959985    -0.11400
C3485       C  0.61056504  0.12283191  0.64191713    -0.01500
C3486       C  0.61072794  0.12398178  0.60664690    -0.06600
H3487       H  0.65389815  0.11317385  0.59255059     0.05800
H3488       H  0.59846488  0.12569212  0.65559481     0.09200
Br3489     Br  0.62885178  0.16007071  0.55681721    -0.06300
Br3490     Br  0.62657642  0.08261565  0.47742686    -0.03300
Br3491     Br  0.66294556  0.10724874  0.66340099    -0.00400
Br3492     Br  0.58911951  0.12952897  0.58376749    -0.04800
C3493       C  0.62020044  0.12731639  0.15963289    -0.12200
C3494       C  0.61880646  0.14366981  0.14268330     0.03300
C3495       C  0.61981912  0.14424951  0.10749633    -0.12700
C3496       C  0.62198851  0.12872596  0.08866146     0.18100
C3497       C  0.62257173  0.11230564  0.10530745    -0.09800
C3498       C  0.62167253  0.11168703  0.14060584    -0.02700
H3499       H  0.61878601  0.15686188  0.09470460     0.04700
C3500       C  0.62276431  0.12996565  0.05155118     0.20100
H3501       H  0.62267694  0.09903049  0.15323826     0.09800
C3502       C  0.63917418  0.13154828  0.03516563    -0.16100
C3503       C  0.64018693  0.13270606  0.99986998     0.02800
C3504       C  0.62449851  0.13255804  0.98055501    -0.11400
C3505       C  0.60810876  0.13123406  0.99738244    -0.01500
C3506       C  0.60717322  0.12985111  0.03245927    -0.06600
H3507       H  0.65123612  0.13152488  0.04986783     0.05800
H3508       H  0.59591253  0.13092260  0.98309092     0.09200
Br3509     Br  0.62466579  0.09052118  0.08073111    -0.06300
Br3510     Br  0.61453175  0.16551214  0.16608164    -0.03300
Br3511     Br  0.66329686  0.13282160  0.97962805    -0.00400
Br3512     Br  0.58437733  0.12715845  0.05335064    -0.04800
C3513       C  0.95418521  0.12635860  0.98045432    -0.12200
C3514       C  0.96561961  0.12937003  0.95270705     0.03300
C3515       C  0.98387478  0.12767820  0.95644333    -0.12700
C3516       C  0.99123595  0.12249547  0.98715732     0.18100
C3517       C  0.97996973  0.11852212  0.01449756    -0.09800
C3518       C  0.96155384  0.12043859  0.01100657    -0.02700
H3519       H  0.99245956  0.13039433  0.93509434     0.04700
C3520       C  0.01074806  0.12274720  0.99003074     0.20100
H3521       H  0.95301300  0.11756294  0.03231577     0.09800
C3522       C  0.01918380  0.13920179  0.99225775    -0.16100
C3523       C  0.03756730  0.14068202  0.98963131     0.02800
C3524       C  0.04801809  0.12540533  0.98436001    -0.11400
C3525       C  0.03952115  0.10877402  0.98363461    -0.01500
C3526       C  0.02103717  0.10738323  0.98616884    -0.06600
H3527       H  0.01131659  0.15107822  0.99523701     0.05800
H3528       H  0.04718912  0.09685165  0.97966907     0.09200
Br3529     Br  0.98926784  0.11085218  0.05695785    -0.06300
Br3530     Br  0.95736293  0.13422837  0.90802815    -0.03300
Br3531     Br  0.04730363  0.16402287  0.99428288    -0.00400
Br3532     Br  0.01029534  0.08445760  0.98213660    -0.04800
C3533       C  0.87834063  0.20370725  0.89007213    -0.12200
C3534       C  0.86994604  0.21203530  0.86247531     0.03300
C3535       C  0.86934013  0.23063746  0.86072120    -0.12700
C3536       C  0.87713492  0.24114889  0.88592841     0.18100
C3537       C  0.88556820  0.23286550  0.91319932    -0.09800
C3538       C  0.88614664  0.21444411  0.91503133    -0.02700
H3539       H  0.86290959  0.23692163  0.83950993     0.04700
C3540       C  0.87629959  0.26074173  0.88439789     0.20100
H3541       H  0.89245413  0.20849176  0.93672755     0.09800
C3542       C  0.86079229  0.26937838  0.89471815    -0.16100
C3543       C  0.86053866  0.28776424  0.89969675     0.02800
C3544       C  0.87608920  0.29785780  0.89439615    -0.11400
C3545       C  0.89139381  0.28919358  0.88276386    -0.01500
C3546       C  0.89153172  0.27086501  0.87745032    -0.06600
H3547       H  0.84908037  0.26166789  0.90057039     0.05800
H3548       H  0.90340373  0.29668681  0.87825142     0.09200
Br3549     Br  0.89607826  0.24623698  0.94926098    -0.06300
Br3550     Br  0.86004529  0.19886507  0.82563891    -0.03300
Br3551     Br  0.83911504  0.29788729  0.91721188    -0.00400
Br3552     Br  0.91299777  0.26000147  0.86190774    -0.04800
C3553       C  0.79530012  0.12466587  0.89883850    -0.12200
C3554       C  0.78758287  0.12954426  0.86781470     0.03300
C3555       C  0.76913320  0.13099016  0.86521688    -0.12700
C3556       C  0.75814057  0.12742635  0.89300358     0.18100
C3557       C  0.76579891  0.12246548  0.92384400    -0.09800
C3558       C  0.78418699  0.12116964  0.92658304    -0.02700
H3559       H  0.76328950  0.13426001  0.84109257     0.04700
C3560       C  0.73874093  0.12676823  0.88832495     0.20100
H3561       H  0.78984172  0.11743711  0.95062947     0.09800
C3562       C  0.73067353  0.11021565  0.88466333    -0.16100
C3563       C  0.71247151  0.10866435  0.87929438     0.02800
C3564       C  0.70181575  0.12405000  0.87712878    -0.11400
C3565       C  0.70999026  0.14067436  0.88190560    -0.01500
C3566       C  0.72827221  0.14210898  0.88729521    -0.06600
H3567       H  0.73867212  0.09835247  0.88596484     0.05800
H3568       H  0.70225706  0.15269647  0.88051199     0.09200
Br3569     Br  0.75158161  0.11711248  0.96273818    -0.06300
Br3570     Br  0.80133073  0.13257395  0.82745450    -0.03300
Br3571     Br  0.70341148  0.08494763  0.87635754    -0.00400
Br3572     Br  0.73841518  0.16521513  0.89285976    -0.04800
C3573       C  0.95486281  0.13544042  0.49275058    -0.12200
C3574       C  0.96233015  0.12921587  0.52314989     0.03300
C3575       C  0.98083083  0.12803530  0.52644272    -0.12700
C3576       C  0.99209799  0.13336271  0.50007062     0.18100
C3577       C  0.98464443  0.14027005  0.47038946    -0.09800
C3578       C  0.96626938  0.14120089  0.46690836    -0.02700
H3579       H  0.98644221  0.12310072  0.54970822     0.04700
C3580       C  0.01159730  0.13164953  0.50322361     0.20100
H3581       H  0.96086886  0.14603283  0.44337300     0.09800
C3582       C  0.01972109  0.11557584  0.49461484    -0.16100
C3583       C  0.03818791  0.11433679  0.49148439     0.02800
C3584       C  0.04888590  0.12941669  0.49700640    -0.11400
C3585       C  0.04071115  0.14528024  0.50717742    -0.01500
C3586       C  0.02227516  0.14643441  0.51049576    -0.06600
H3587       H  0.01160134  0.10417888  0.48858812     0.05800
H3588       H  0.04866833  0.15699679  0.51156466     0.09200
Br3589     Br  0.99908317  0.14833461  0.43354025    -0.06300
Br3590     Br  0.94793858  0.12343056  0.56158043    -0.03300
Br3591     Br  0.04778508  0.09232827  0.47560108    -0.00400
Br3592     Br  0.01205916  0.16867982  0.52330862    -0.04800
C3593       C  0.87844476  0.20329791  0.38146844    -0.12200
C3594       C  0.89376202  0.21368506  0.37586901     0.03300
C3595       C  0.89240978  0.23211715  0.37425663    -0.12700
C3596       C  0.87605389  0.24055416  0.37850842     0.18100
C3597       C  0.86061105  0.23023526  0.38129499    -0.09800
C3598       C  0.86187259  0.21176191  0.38243999    -0.02700
H3599       H  0.90432999  0.23998918  0.37158497     0.04700
C3600       C  0.87576296  0.25986662  0.38475362     0.20100
H3601       H  0.84993481  0.20410918  0.38664491     0.09800
C3602       C  0.86891409  0.27149516  0.36054216    -0.16100
C3603       C  0.86872805  0.28983431  0.36634167     0.02800
C3604       C  0.87543979  0.29674093  0.39698050    -0.11400
C3605       C  0.88231820  0.28495973  0.42096246    -0.01500
C3606       C  0.88248312  0.26675376  0.41514550    -0.06600
H3607       H  0.86389797  0.26629547  0.33693147     0.05800
H3608       H  0.88740408  0.28991073  0.44471915     0.09200
Br3609     Br  0.83777035  0.24082908  0.38731713    -0.06300
Br3610     Br  0.91698152  0.20370974  0.37105738    -0.03300
Br3611     Br  0.86033565  0.30469900  0.33057932    -0.00400
Br3612     Br  0.89155731  0.25173294  0.45007631    -0.04800
C3613       C  0.87669328  0.12069241  0.60066222    -0.12200
C3614       C  0.86052087  0.11810739  0.61785423     0.03300
C3615       C  0.85997974  0.11881694  0.65300311    -0.12700
C3616       C  0.87542912  0.12160056  0.67161315     0.18100
C3617       C  0.89181190  0.12282904  0.65473263    -0.09800
C3618       C  0.89234441  0.12252903  0.61937771    -0.02700
H3619       H  0.84744550  0.11707338  0.66594940     0.04700
C3620       C  0.87404930  0.12240449  0.70869147     0.20100
H3621       H  0.90491841  0.12413124  0.60651791     0.09800
C3622       C  0.87095323  0.10672993  0.72641244    -0.16100
C3623       C  0.86908040  0.10686881  0.76145210     0.02800
C3624       C  0.86999895  0.12305161  0.77943498    -0.11400
C3625       C  0.87261533  0.13883301  0.76143590    -0.01500
C3626       C  0.87472470  0.13858664  0.72629324    -0.06600
H3627       H  0.87010508  0.09428712  0.71286380     0.05800
H3628       H  0.87361100  0.15130733  0.77481913     0.09200
Br3629     Br  0.91365602  0.12458344  0.67902217    -0.06300
Br3630     Br  0.83900295  0.11220586  0.59483636    -0.03300
Br3631     Br  0.86497819  0.08445643  0.78288521    -0.00400
Br3632     Br  0.87843792  0.16057962  0.70325838    -0.04800
C3633       C  0.87799514  0.13220172  0.28047055    -0.12200
C3634       C  0.89352885  0.13698935  0.26282404     0.03300
C3635       C  0.89390066  0.13620061  0.22758413    -0.12700
C3636       C  0.87896147  0.13075954  0.20950595     0.18100
C3637       C  0.86329493  0.12643694  0.22698859    -0.09800
C3638       C  0.86287981  0.12726599  0.26225409    -0.02700
H3639       H  0.90587720  0.13986681  0.21419323     0.04700
C3640       C  0.87992214  0.12993684  0.17237169     0.20100
H3641       H  0.85091273  0.12344886  0.27552506     0.09800
C3642       C  0.88686138  0.11484776  0.15660309    -0.16100
C3643       C  0.88746877  0.11346036  0.12131288     0.02800
C3644       C  0.88096893  0.12747912  0.10116001    -0.11400
C3645       C  0.87466187  0.14284428  0.11751650    -0.01500
C3646       C  0.87408764  0.14412088  0.15262278    -0.06600
H3647       H  0.89155772  0.10396374  0.17188756     0.05800
H3648       H  0.86990510  0.15397248  0.10297453     0.09200
Br3649     Br  0.84237571  0.11884588  0.20378150    -0.06300
Br3650     Br  0.91433337  0.14540446  0.28547511    -0.03300
Br3651     Br  0.89653564  0.09172489  0.10308806    -0.00400
Br3652     Br  0.86507844  0.16544598  0.17260963    -0.04800
C3653       C  0.79914542  0.11882351  0.39004574    -0.12200
C3654       C  0.78999192  0.10310765  0.38144506     0.03300
C3655       C  0.77162293  0.10346268  0.37620753    -0.12700
C3656       C  0.76199655  0.11930647  0.37876451     0.18100
C3657       C  0.77119599  0.13503624  0.38656319    -0.09800
C3658       C  0.78950874  0.13468683  0.39207642    -0.02700
H3659       H  0.76479730  0.09128362  0.36990656     0.04700
C3660       C  0.74245218  0.11913132  0.37320466     0.20100
H3661       H  0.79622099  0.14691769  0.39844983     0.09800
C3662       C  0.73096583  0.12412951  0.39948035    -0.16100
C3663       C  0.71252650  0.12414890  0.39507233     0.02800
C3664       C  0.70510338  0.11837770  0.36415744    -0.11400
C3665       C  0.71666277  0.11324477  0.33803240    -0.01500
C3666       C  0.73508828  0.11392910  0.34207652    -0.06600
H3667       H  0.73640162  0.12813901  0.42358744     0.05800
H3668       H  0.71134431  0.10925566  0.31381900     0.09200
Br3669     Br  0.75952149  0.15751428  0.38877177    -0.06300
Br3670     Br  0.80188829  0.08099261  0.37424231    -0.03300
Br3671     Br  0.69838018  0.13174339  0.43270419    -0.00400
Br3672     Br  0.74964219  0.10900637  0.30344484    -0.04800
C3673       C  0.87790031  0.79779216  0.61184458    -0.12200
C3674       C  0.87163214  0.78969744  0.64170350     0.03300
C3675       C  0.87077287  0.77114796  0.64388899    -0.12700
C3676       C  0.87645328  0.76045086  0.61696885     0.18100
C3677       C  0.88323345  0.76848748  0.58767992    -0.09800
C3678       C  0.88377906  0.78691280  0.58521618    -0.02700
H3679       H  0.86594829  0.76503905  0.66685918     0.04700
C3680       C  0.87557050  0.74091879  0.61956863     0.20100
H3681       H  0.88873274  0.79276235  0.56209031     0.09800
C3682       C  0.86052368  0.73197623  0.60776032    -0.16100
C3683       C  0.86018526  0.71345044  0.60568464     0.02800
C3684       C  0.87519605  0.70358313  0.61535833    -0.11400
C3685       C  0.89001705  0.71259062  0.62813852    -0.01500
C3686       C  0.89023167  0.73106757  0.63052926    -0.06600
H3687       H  0.84925623  0.73947813  0.59892885     0.05800
H3688       H  0.90162197  0.70522882  0.63574457     0.09200
Br3689     Br  0.89218292  0.75479163  0.55053006    -0.06300
Br3690     Br  0.86562034  0.80316336  0.68113848    -0.03300
Br3691     Br  0.83960248  0.70255296  0.58625135    -0.00400
Br3692     Br  0.91107216  0.74238033  0.64770383    -0.04800
C3693       C  0.94974089  0.87263120  0.50536380    -0.12200
C3694       C  0.95977752  0.85692609  0.50166803     0.03300
C3695       C  0.97832312  0.85773827  0.50091961    -0.12700
C3696       C  0.98727533  0.87396115  0.50352730     0.18100
C3697       C  0.97735621  0.88968480  0.50441527    -0.09800
C3698       C  0.95880644  0.88894977  0.50511775    -0.02700
H3699       H  0.98584337  0.84556664  0.49957537     0.04700
C3700       C  0.00675532  0.87406038  0.50880791     0.20100
H3701       H  0.95153794  0.90120517  0.50786020     0.09800
C3702       C  0.01827225  0.87975843  0.48312784    -0.16100
C3703       C  0.03671194  0.87990807  0.48794834     0.02800
C3704       C  0.04394844  0.87388197  0.51874867    -0.11400
C3705       C  0.03227572  0.86829206  0.54435671    -0.01500
C3706       C  0.01392750  0.86861641  0.53982235    -0.06600
H3707       H  0.01288506  0.88410891  0.45924911     0.05800
H3708       H  0.03744205  0.86400750  0.56846842     0.09200
Br3709     Br  0.98861780  0.91236097  0.50818423    -0.06300
Br3710     Br  0.94912889  0.83390662  0.49777137    -0.03300
Br3711     Br  0.05121794  0.88778211  0.45107983    -0.00400
Br3712     Br  0.99909025  0.86248462  0.57747009    -0.04800
C3713       C  0.87179859  0.95657928  0.52611287    -0.12200
C3714       C  0.87370713  0.96878766  0.55280193     0.03300
C3715       C  0.87467569  0.98690480  0.54598468    -0.12700
C3716       C  0.87386508  0.99313922  0.51276097     0.18100
C3717       C  0.87214664  0.98096861  0.48598326    -0.09800
C3718       C  0.87118028  0.96279780  0.49278549    -0.02700
H3719       H  0.87621565  0.99618038  0.56665754     0.04700
C3720       C  0.87483577  0.01239688  0.50667849     0.20100
H3721       H  0.86980217  0.95351905  0.47207819     0.09800
C3722       C  0.89081099  0.02000319  0.49583462    -0.16100
C3723       C  0.89203437  0.03820282  0.48940598     0.02800
C3724       C  0.87702802  0.04908130  0.49395477    -0.11400
C3725       C  0.86117181  0.04137693  0.50543432    -0.01500
C3726       C  0.85999621  0.02325445  0.51181906    -0.06600
H3727       H  0.90228512  0.01167936  0.49183242     0.05800
H3728       H  0.84949624  0.04948166  0.50896550     0.09200
Br3729     Br  0.87087088  0.98863866  0.43993478    -0.06300
Br3730     Br  0.87624475  0.96127869  0.59878434    -0.03300
Br3731     Br  0.91402773  0.04698615  0.47183446    -0.00400
Br3732     Br  0.83763616  0.01381895  0.52619346    -0.04800
C3733       C  0.87786298  0.70645021  0.11599589    -0.12200
C3734       C  0.88518396  0.71920694  0.09382263     0.03300
C3735       C  0.88445756  0.73721600  0.10194559    -0.12700
C3736       C  0.87612617  0.74314422  0.13146782     0.18100
C3737       C  0.86838231  0.73064181  0.15329555    -0.09800
C3738       C  0.86935700  0.71248519  0.14558763    -0.02700
H3739       H  0.88991886  0.74678629  0.08441698     0.04700
C3740       C  0.87445535  0.76254659  0.13666118     0.20100
H3741       H  0.86349352  0.70305193  0.16288803     0.09800
C3742       C  0.85885485  0.77095316  0.12644104    -0.16100
C3743       C  0.85811790  0.78939771  0.12289237     0.02800
C3744       C  0.87328720  0.79983266  0.12961507    -0.11400
C3745       C  0.88851446  0.79143201  0.14198486    -0.01500
C3746       C  0.88913940  0.77300203  0.14573870    -0.06600
H3747       H  0.84754850  0.76302670  0.11902933     0.05800
H3748       H  0.90020653  0.79918940  0.14766381     0.09200
Br3749     Br  0.85649158  0.73784237  0.19383793    -0.06300
Br3750     Br  0.89465912  0.71340236  0.05024641    -0.03300
Br3751     Br  0.83677401  0.79905384  0.10443746    -0.00400
Br3752     Br  0.91053445  0.76259677  0.16219007    -0.04800
C3753       C  0.95060123  0.86858962  0.01850351    -0.12200
C3754       C  0.96023429  0.85314605  0.01054364     0.03300
C3755       C  0.97876281  0.85384732  0.00798614    -0.12700
C3756       C  0.98814251  0.86958111  0.01463067     0.18100
C3757       C  0.97839798  0.88514218  0.02128887    -0.09800
C3758       C  0.95988433  0.88456150  0.02263944    -0.02700
H3759       H  0.98595214  0.84186767  0.00190939     0.04700
C3760       C  0.00792173  0.86928802  0.01644482     0.20100
H3761       H  0.95275138  0.89653559  0.02904808     0.09800
C3762       C  0.01808329  0.88065567  0.99606604    -0.16100
C3763       C  0.03663809  0.88146473  0.99877520     0.02800
C3764       C  0.04563319  0.87042449  0.02200293    -0.11400
C3765       C  0.03529280  0.85862805  0.04144985    -0.01500
C3766       C  0.01683199  0.85804002  0.03903755    -0.06600
H3767       H  0.01148907  0.88913077  0.97805130     0.05800
H3768       H  0.04150802  0.84998556  0.05964741     0.09200
Br3769     Br  0.98951287  0.90728891  0.03205316    -0.06300
Br3770     Br  0.94883831  0.83079619  0.00278183    -0.03300
Br3771     Br  0.04840745  0.89777909  0.96934208    -0.00400
Br3772     Br  0.00453723  0.84226734  0.06906103    -0.04800
C3773       C  0.87641157  0.87479862  0.90838446    -0.12200
C3774       C  0.87520642  0.89027392  0.88873509     0.03300
C3775       C  0.87508820  0.88899399  0.85347567    -0.12700
C3776       C  0.87596189  0.87245922  0.83731335     0.18100
C3777       C  0.87743612  0.85703238  0.85698727    -0.09800
C3778       C  0.87752086  0.85830636  0.89215509    -0.02700
H3779       H  0.87404238  0.90094200  0.83855854     0.04700
C3780       C  0.87538979  0.87157202  0.80000214     0.20100
H3781       H  0.87838540  0.84630413  0.90697360     0.09800
C3782       C  0.89015980  0.86513419  0.78230864    -0.16100
C3783       C  0.89022878  0.86442696  0.74705878     0.02800
C3784       C  0.87538004  0.87030347  0.72895169    -0.11400
C3785       C  0.86047575  0.87642902  0.74653464    -0.01500
C3786       C  0.86041957  0.87723016  0.78180953    -0.06600
H3787       H  0.90172899  0.86074974  0.79600309     0.05800
H3788       H  0.84904024  0.88108562  0.73274091     0.09200
Br3789     Br  0.87876824  0.83384967  0.83724882    -0.06300
Br3790     Br  0.87220489  0.91326283  0.90858236    -0.03300
Br3791     Br  0.91062497  0.85479590  0.72473067    -0.00400
Br3792     Br  0.83958669  0.88612454  0.80382240    -0.04800
C3793       C  0.87247969  0.88352557  0.40914064    -0.12200
C3794       C  0.88819367  0.88433903  0.38988433     0.03300
C3795       C  0.88727612  0.88357509  0.35465794    -0.12700
C3796       C  0.87091111  0.88217495  0.33820551     0.18100
C3797       C  0.85524611  0.88156892  0.35738833    -0.09800
C3798       C  0.85613775  0.88218386  0.39249896    -0.02700
H3799       H  0.89939608  0.88386042  0.33998428     0.04700
C3800       C  0.87042352  0.88128877  0.30103983     0.20100
H3801       H  0.84394592  0.88158475  0.40693286     0.09800
C3802       C  0.86468042  0.86571130  0.28518269    -0.16100
C3803       C  0.86412653  0.86439662  0.24996356     0.02800
C3804       C  0.86940448  0.87896555  0.22993877    -0.11400
C3805       C  0.87512482  0.89455398  0.24619996    -0.01500
C3806       C  0.87573421  0.89576780  0.28130027    -0.06600
H3807       H  0.86080705  0.85443112  0.30036386     0.05800
H3808       H  0.87918784  0.90595452  0.23154602     0.09200
Br3809     Br  0.83229857  0.88033286  0.33687404    -0.06300
Br3810     Br  0.91126037  0.88511233  0.41003963    -0.03300
Br3811     Br  0.85716816  0.84197316  0.23145060    -0.00400
Br3812     Br  0.88362600  0.91759644  0.30114162    -0.04800
C3813       C  0.87290297  0.95383953  0.01593812    -0.12200
C3814       C  0.88883846  0.96364651  0.01812673     0.03300
C3815       C  0.88882850  0.98189415  0.01167903    -0.12700
C3816       C  0.87313731  0.99082614  0.00369981     0.18100
C3817       C  0.85725252  0.98112009  0.00157480    -0.09800
C3818       C  0.85725038  0.96287578  0.00759505    -0.02700
H3819       H  0.90110267  0.98925558  0.01356988     0.04700
C3820       C  0.87355352  0.01023432  0.99775181     0.20100
H3821       H  0.84483294  0.95573378  0.00607386     0.09800
C3822       C  0.87016783  0.01670306  0.96527987    -0.16100
C3823       C  0.87009768  0.03490033  0.95879410     0.02800
C3824       C  0.87328640  0.04709113  0.98517274    -0.11400
C3825       C  0.87727117  0.04060722  0.01743764    -0.01500
C3826       C  0.87738667  0.02235350  0.02386827    -0.06600
H3827       H  0.86767434  0.00751352  0.94480820     0.05800
H3828       H  0.87986646  0.04977146  0.03790016     0.09200
Br3829     Br  0.83502786  0.99229371  0.99219974    -0.06300
Br3830     Br  0.91073289  0.95347412  0.03283965    -0.03300
Br3831     Br  0.86680577  0.04225452  0.91291562    -0.00400
Br3832     Br  0.88208036  0.01462566  0.06902133    -0.04800
C3833       C  0.62250762  0.79703019  0.63716174    -0.12200
C3834       C  0.62852610  0.78903928  0.60697142     0.03300
C3835       C  0.62874769  0.77043239  0.60399806    -0.12700
C3836       C  0.62303281  0.75959676  0.63076382     0.18100
C3837       C  0.61735821  0.76761017  0.66096874    -0.09800
C3838       C  0.61703038  0.78602204  0.66384059    -0.02700
H3839       H  0.63319096  0.76441104  0.58064511     0.04700
C3840       C  0.62320339  0.73996378  0.62774737     0.20100
H3841       H  0.61265007  0.79178556  0.68748094     0.09800
C3842       C  0.63911657  0.73078870  0.63234920    -0.16100
C3843       C  0.63931543  0.71229213  0.63587205     0.02800
C3844       C  0.62325226  0.70257744  0.63517502    -0.11400
C3845       C  0.60744985  0.71181229  0.62893088    -0.01500
C3846       C  0.60735958  0.73023845  0.62487495    -0.06600
H3847       H  0.65136991  0.73814034  0.63477563     0.05800
H3848       H  0.59501820  0.70468247  0.62766315     0.09200
Br3849     Br  0.61034773  0.75390294  0.69954626    -0.06300
Br3850     Br  0.63550502  0.80283453  0.56859179    -0.03300
Br3851     Br  0.66180767  0.70153631  0.64469256    -0.00400
Br3852     Br  0.58520308  0.74169233  0.61630894    -0.04800
C3853       C  0.54638457  0.86698380  0.74199899    -0.12200
C3854       C  0.53637694  0.85109612  0.74214800     0.03300
C3855       C  0.51788645  0.85178395  0.74413980    -0.12700
C3856       C  0.50893018  0.86801326  0.74514118     0.18100
C3857       C  0.51884188  0.88377117  0.74692842    -0.09800
C3858       C  0.53734118  0.88314672  0.74568455    -0.02700
H3859       H  0.51036942  0.83956775  0.74328567     0.04700
C3860       C  0.48942382  0.86828497  0.74080311     0.20100
H3861       H  0.54459485  0.89551835  0.74547980     0.09800
C3862       C  0.47839306  0.87479539  0.76660213    -0.16100
C3863       C  0.45996547  0.87572750  0.76227182     0.02800
C3864       C  0.45230037  0.86997545  0.73164486    -0.11400
C3865       C  0.46343498  0.86322599  0.70622365    -0.01500
C3866       C  0.48172463  0.86236328  0.71048841    -0.06600
H3867       H  0.48415700  0.87915854  0.79019981     0.05800
H3868       H  0.45789782  0.85880308  0.68245717     0.09200
Br3869     Br  0.50777573  0.90659351  0.74776486    -0.06300
Br3870     Br  0.54679107  0.82796489  0.73891280    -0.03300
Br3871     Br  0.44603108  0.88400265  0.79963703    -0.00400
Br3872     Br  0.49558809  0.85358406  0.67334765    -0.04800
C3873       C  0.62356739  0.95376422  0.73914103    -0.12200
C3874       C  0.60879812  0.96448170  0.73187588     0.03300
C3875       C  0.60901440  0.98253924  0.74047315    -0.12700
C3876       C  0.62388861  0.99028564  0.75592769     0.18100
C3877       C  0.63856494  0.97946672  0.76329931    -0.09800
C3878       C  0.63832676  0.96148311  0.75477258    -0.02700
H3879       H  0.59765703  0.99065683  0.73449218     0.04700
C3880       C  0.62416364  0.00965462  0.76343003     0.20100
H3881       H  0.64982032  0.95345719  0.76029646     0.09800
C3882       C  0.62559122  0.01549959  0.79701528    -0.16100
C3883       C  0.62686757  0.03358473  0.80481683     0.02800
C3884       C  0.62652659  0.04631525  0.77878160    -0.11400
C3885       C  0.62458975  0.04049392  0.74529972    -0.01500
C3886       C  0.62352599  0.02240566  0.73747912    -0.06600
H3887       H  0.62579668  0.00590850  0.81729364     0.05800
H3888       H  0.62422468  0.05007166  0.72500626     0.09200
Br3889     Br  0.65968555  0.98868743  0.78355649    -0.06300
Br3890     Br  0.58874278  0.95546428  0.70763700    -0.03300
Br3891     Br  0.62801503  0.04017707  0.85157438    -0.00400
Br3892     Br  0.62202291  0.01583565  0.69077870    -0.04800
C3893       C  0.70249510  0.88049854  0.64249534    -0.12200
C3894       C  0.71345599  0.89578965  0.64292487     0.03300
C3895       C  0.73173271  0.89417074  0.63783770    -0.12700
C3896       C  0.73959220  0.87764579  0.63236070     0.18100
C3897       C  0.72887527  0.86243324  0.63198904    -0.09800
C3898       C  0.71056999  0.86393675  0.63686112    -0.02700
H3899       H  0.73992660  0.90595464  0.63795841     0.04700
C3900       C  0.75893407  0.87680650  0.62619050     0.20100
H3901       H  0.70266889  0.85196937  0.63661340     0.09800
C3902       C  0.77031913  0.87117730  0.65194273    -0.16100
C3903       C  0.78875698  0.87156271  0.64748442     0.02800
C3904       C  0.79605188  0.87791697  0.61694492    -0.11400
C3905       C  0.78456428  0.88334904  0.59115700    -0.01500
C3906       C  0.76619972  0.88264483  0.59543059    -0.06600
H3907       H  0.76484095  0.86678110  0.67580145     0.05800
H3908       H  0.78990536  0.88797573  0.56733541     0.09200
Br3909     Br  0.73860660  0.83936528  0.62428960    -0.06300
Br3910     Br  0.70477868  0.91947184  0.64910108    -0.03300
Br3911     Br  0.80328554  0.86442526  0.68468074    -0.00400
Br3912     Br  0.75147597  0.88934414  0.55825205    -0.04800
C3913       C  0.61577693  0.79747507  0.12787891    -0.12200
C3914       C  0.60010166  0.78755814  0.12297874     0.03300
C3915       C  0.60093197  0.76908781  0.12027866    -0.12700
C3916       C  0.61715395  0.76016023  0.12247269     0.18100
C3917       C  0.63288719  0.77010607  0.12439260    -0.09800
C3918       C  0.63210526  0.78856636  0.12688356    -0.02700
H3919       H  0.58877178  0.76156648  0.11800309     0.04700
C3920       C  0.61723803  0.74066685  0.12693881     0.20100
H3921       H  0.64432453  0.79585197  0.13033912     0.09800
C3922       C  0.62474018  0.72957166  0.10227712    -0.16100
C3923       C  0.62569034  0.71118293  0.10718794     0.02800
C3924       C  0.61889512  0.70362760  0.13722726    -0.11400
C3925       C  0.61110449  0.71483102  0.16139588    -0.01500
C3926       C  0.61033584  0.73308673  0.15662468    -0.06600
H3927       H  0.62997465  0.73526476  0.07923763     0.05800
H3928       H  0.60594566  0.70942181  0.18475209     0.09200
Br3929     Br  0.65566612  0.75905024  0.12719346    -0.06300
Br3930     Br  0.57719563  0.79833318  0.11969133    -0.03300
Br3931     Br  0.63574244  0.69718247  0.07146249    -0.00400
Br3932     Br  0.60057152  0.74714878  0.19252984    -0.04800
C3933       C  0.54485409  0.86902476  0.24532668    -0.12200
C3934       C  0.53469807  0.85339680  0.24945717     0.03300
C3935       C  0.51622753  0.85437273  0.25191007    -0.12700
C3936       C  0.50742879  0.87063242  0.24974696     0.18100
C3937       C  0.51746940  0.88628044  0.24738181    -0.09800
C3938       C  0.53598876  0.88540761  0.24563165    -0.02700
H3939       H  0.50859001  0.84226253  0.25376649     0.04700
C3940       C  0.48795704  0.87069582  0.24508766     0.20100
H3941       H  0.54337639  0.89757165  0.24221031     0.09800
C3942       C  0.47653168  0.87536766  0.27172748    -0.16100
C3943       C  0.45805546  0.87509055  0.26734033     0.02800
C3944       C  0.45087313  0.87040280  0.23571993    -0.11400
C3945       C  0.46239278  0.86562709  0.20939022    -0.01500
C3946       C  0.48068476  0.86561641  0.21388336    -0.06600
H3947       H  0.48198394  0.87888783  0.29608473     0.05800
H3948       H  0.45711689  0.86185130  0.18500685     0.09200
Br3949     Br  0.50638731  0.90896836  0.24304525    -0.06300
Br3950     Br  0.54497508  0.83020653  0.25119409    -0.03300
Br3951     Br  0.44322353  0.87956177  0.30579569    -0.00400
Br3952     Br  0.49520920  0.85842660  0.17648335    -0.04800
C3953       C  0.62098279  0.87679651  0.84852595    -0.12200
C3954       C  0.61791190  0.89205954  0.86837194     0.03300
C3955       C  0.61860746  0.89088771  0.90364305    -0.12700
C3956       C  0.62227789  0.87474157  0.91948613     0.18100
C3957       C  0.62508759  0.85953258  0.89989679    -0.09800
C3958       C  0.62447187  0.86064438  0.86482784    -0.02700
H3959       H  0.61638907  0.90262629  0.91880474     0.04700
C3960       C  0.62266296  0.87376894  0.95654284     0.20100
H3961       H  0.62678582  0.84874203  0.85019096     0.09800
C3962       C  0.60769094  0.86742248  0.97358390    -0.16100
C3963       C  0.60757027  0.86611946  0.00870598     0.02800
C3964       C  0.62257713  0.87132710  0.02721316    -0.11400
C3965       C  0.63777153  0.87717278  0.01010353    -0.01500
C3966       C  0.63788724  0.87845200  0.97489230    -0.06600
H3967       H  0.59610676  0.86339274  0.95945463     0.05800
H3968       H  0.64938206  0.88116993  0.02419567     0.09200
Br3969     Br  0.63008069  0.83701867  0.92004509    -0.06300
Br3970     Br  0.61377648  0.91498296  0.84920825    -0.03300
Br3971     Br  0.58697720  0.85633152  0.03017571    -0.00400
Br3972     Br  0.65902032  0.88656594  0.95283908    -0.04800
C3973       C  0.62878298  0.87725004  0.52657891    -0.12200
C3974       C  0.62636805  0.89323980  0.50856746     0.03300
C3975       C  0.62618062  0.89312254  0.47336931    -0.12700
C3976       C  0.62828910  0.87735658  0.45542303     0.18100
C3977       C  0.63133628  0.86149665  0.47297088    -0.09800
C3978       C  0.63165236  0.86153500  0.50833758    -0.02700
H3979       H  0.62412373  0.90539603  0.45984751     0.04700
C3980       C  0.62696933  0.87785644  0.41836919     0.20100
H3981       H  0.63352589  0.84915779  0.52158568     0.09800
C3982       C  0.64217974  0.88128016  0.39924079    -0.16100
C3983       C  0.64132610  0.88206407  0.36406245     0.02800
C3984       C  0.62497947  0.87947935  0.34756481    -0.11400
C3985       C  0.60963836  0.87674109  0.36688560    -0.01500
C3986       C  0.61056076  0.87584727  0.40210567    -0.06600
H3987       H  0.65475396  0.88329862  0.41174850     0.05800
H3988       H  0.59703391  0.87467143  0.35452513     0.09200
Br3989     Br  0.63460641  0.83951594  0.44955452    -0.06300
Br3990     Br  0.62369969  0.91588727  0.52992680    -0.03300
Br3991     Br  0.66277763  0.88729591  0.33992835    -0.00400
Br3992     Br  0.58922804  0.87151541  0.42711835    -0.04800
C3993       C  0.62257310  0.95319216  0.23175465    -0.12200
C3994       C  0.62532724  0.96568843  0.20575972     0.03300
C3995       C  0.62458464  0.98384501  0.21283831    -0.12700
C3996       C  0.62122148  0.98999074  0.24564038     0.18100
C3997       C  0.61806180  0.97759150  0.27150746    -0.09800
C3998       C  0.61859372  0.95937877  0.26440260    -0.02700
H3999       H  0.62686924  0.99325678  0.19269082     0.04700
C4000       C  0.62198575  0.00932010  0.25262538     0.20100
H4001       H  0.61642051  0.95001895  0.28467702     0.09800
C4002       C  0.60639887  0.01878248  0.25924241    -0.16100
C4003       C  0.60688398  0.03696790  0.26669884     0.02800
C4004       C  0.62328999  0.04611098  0.26739372    -0.11400
C4005       C  0.63881891  0.03648830  0.26048969    -0.01500
C4006       C  0.63826355  0.01837102  0.25312044    -0.06600
H4007       H  0.59380772  0.01190309  0.25914798     0.05800
H4008       H  0.65155644  0.04308388  0.26088010     0.09200
Br4009     Br  0.61399836  0.98498055  0.31721780    -0.06300
Br4010     Br  0.62939150  0.95880622  0.15975865    -0.03300
Br4011     Br  0.58480090  0.04793695  0.27831053    -0.00400
Br4012     Br  0.66020369  0.00634586  0.24503660    -0.04800
C4013       C  0.70010308  0.87516614  0.13910698    -0.12200
C4014       C  0.70664989  0.87291912  0.10599823     0.03300
C4015       C  0.72496620  0.87271293  0.10017713    -0.12700
C4016       C  0.73690504  0.87432072  0.12706535     0.18100
C4017       C  0.73035940  0.87585070  0.16020898    -0.09800
C4018       C  0.71210145  0.87650211  0.16597118    -0.02700
H4019       H  0.72991967  0.87158441  0.07457697     0.04700
C4020       C  0.75610102  0.87563375  0.12010342     0.20100
H4021       H  0.70723586  0.87794691  0.19158370     0.09800
C4022       C  0.76367093  0.89240449  0.11585030    -0.16100
C4023       C  0.78187950  0.89442803  0.11042071     0.02800
C4024       C  0.79299275  0.87934997  0.10929220    -0.11400
C4025       C  0.78522270  0.86252195  0.11360808    -0.01500
C4026       C  0.76697644  0.86059933  0.11882853    -0.06600
H4027       H  0.75533900  0.90403975  0.11713473     0.05800
H4028       H  0.79333500  0.85073319  0.11260896     0.09200
Br4029     Br  0.74594975  0.87703921  0.19825643    -0.06300
Br4030     Br  0.69116016  0.87124903  0.06781295    -0.03300
Br4031     Br  0.79047604  0.91827017  0.10654455    -0.00400
Br4032     Br  0.75742899  0.83725292  0.12435834    -0.04800
loop_ 
_geom_bond_atom_site_label_1 
_geom_bond_atom_site_label_2 
_geom_bond_distance 
_geom_bond_site_symmetry_2 
_ccdc_geom_bond_type 
Zr1           O2   2.441       .  S
Zr1           O3   2.452       .  S
Zr1           O4   2.463       .  S
Zr1           O7   2.453       .  S
Zr1           O9   2.384       .  S
Zr1          O10   2.389       .  S
Zr1          O11   2.415       .  S
Zr1          O12   2.404       .  S
O2           H58   0.990       .  S
O2           H66   0.990       .  S
O3           C23   1.286       .  A
O4           C25   1.289       .  A
O5          Zr15   2.439       .  S
O5           C24   1.286       .  A
O6          Zr14   2.429       .  S
O6           C25   1.283       .  A
O7           C24   1.288       .  A
O8          Zr16   2.401       .  S
O8           C23   1.277       .  A
O9          Zr14   2.400       .  S
O9          Zr16   2.383       .  S
O10         Zr15   2.394       .  S
O10         Zr16   2.384       .  S
O10          H45   0.966       .  S
O11         Zr14   2.402       .  S
O11         Zr31   2.391       .  S
O11          H48   0.964       .  S
O12         Zr15   2.387       .  S
O12         Zr31   2.387       .  S
Zr13         O38   2.442       .  S
Zr13         O32   2.435       .  S
Zr13         O40   2.440       .  S
Zr13         O28   2.451       .  S
Zr13         O19   2.396       .  S
Zr13         O20   2.409       .  S
Zr13         O21   2.380       .  S
Zr13         O22   2.387       .  S
Zr14         O33   2.436       .  S
Zr14         O26   2.436       .  S
Zr14         O27   2.430       .  S
Zr14         O20   2.402       .  S
Zr14         O21   2.394       .  S
Zr15         O17   2.436       .  S
Zr15         O39   2.439       .  S
Zr15         O41   2.434       .  S
Zr15         O19   2.389       .  S
Zr15         O22   2.396       .  S
Zr16         O42   2.436       .  S
Zr16         O43   2.437       .  S
Zr16         O18   2.438       .  S
Zr16         O19   2.381       .  S
Zr16         O20   2.391       .  S
O17          H54   0.990       .  S
O18          H49   0.990       .  S
O18          H63   0.990       .  S
O20          H46   0.965       .  S
O21         Zr31   2.380       .  S
O22         Zr31   2.383       .  S
O22          H47   0.966       .  S
C23        C3984   1.472       .  S
C24        C3993   1.487       .  S
C25        C3933   1.492       .  S
O26          H62   0.990       .  S
O27          C29   1.284       .  A
O28          C29   1.286       .  A
C29        C3913   1.488       .  S
O30         Zr31   2.439       .  S
O30          H59   0.990       .  S
Zr31         O34   2.439       .  S
Zr31         O35   2.438       .  S
Zr31         O36   2.407       .  S
O32          C37   1.282       .  A
O33          H50   0.990       .  S
O33          H65   0.990       .  S
O34          H51   0.990       .  S
O35          H55   0.990       .  S
O35          H64   0.989       .  S
O36          C37   1.279       .  A
C37        C3964   1.466       .  S
O38          H57   0.990       .  S
O38          H61   0.990       .  S
O39          H53   0.990       .  S
O39          H60   0.990       .  S
O40          C44   1.285       .  A
O41          C44   1.285       .  A
O42          H52   0.990       .  S
O43          H56   0.990       .  S
C44        C4013   1.477       .  S
Zr67         O68   2.442       .  S
Zr67         O69   2.449       .  S
Zr67         O70   2.459       .  S
Zr67         O73   2.454       .  S
Zr67         O75   2.385       .  S
Zr67         O76   2.386       .  S
Zr67         O77   2.410       .  S
Zr67         O78   2.401       .  S
O68         H124   0.990       .  S
O68         H132   0.991       .  S
O69          C89   1.285       .  A
O70          C91   1.288       .  A
O71         Zr81   2.428       .  S
O71          C90   1.284       .  A
O72         Zr80   2.419       .  S
O72          C91   1.281       .  A
O73          C90   1.288       .  A
O74         Zr82   2.400       .  S
O74          C89   1.278       .  A
O75         Zr80   2.396       .  S
O75         Zr82   2.383       .  S
O76         Zr81   2.393       .  S
O76         Zr82   2.375       .  S
O76         H111   0.966       .  S
O77         Zr80   2.400       .  S
O77         Zr97   2.384       .  S
O77         H114   0.965       .  S
O78         Zr81   2.389       .  S
O78         Zr97   2.388       .  S
Zr79        O104   2.442       .  S
Zr79         O98   2.460       .  S
Zr79        O106   2.458       .  S
Zr79         O94   2.477       .  S
Zr79         O85   2.408       .  S
Zr79         O86   2.412       .  S
Zr79         O87   2.382       .  S
Zr79         O88   2.391       .  S
Zr80         O99   2.436       .  S
Zr80         O92   2.435       .  S
Zr80         O93   2.421       .  S
Zr80         O86   2.394       .  S
Zr80         O87   2.394       .  S
Zr81         O83   2.435       .  S
Zr81        O105   2.439       .  S
Zr81        O107   2.424       .  S
Zr81         O85   2.393       .  S
Zr81         O88   2.395       .  S
Zr82        O108   2.435       .  S
Zr82        O109   2.435       .  S
Zr82         O84   2.437       .  S
Zr82         O85   2.385       .  S
Zr82         O86   2.387       .  S
O83         H120   0.990       .  S
O84         H115   0.990       .  S
O84         H129   0.990       .  S
O86         H112   0.964       .  S
O87         Zr97   2.384       .  S
O88         Zr97   2.383       .  S
O88         H113   0.966       .  S
C89        C3953   1.481       .  S
C90        C3873   1.483       .  S
C91        C3853   1.490       .  S
O92         H128   0.990       .  S
O93          C95   1.283       .  A
O94          C95   1.292       .  A
C95        C3833   1.491       .  S
O96         Zr97   2.440       .  S
O96         H125   0.990       .  S
Zr97        O100   2.438       .  S
Zr97        O101   2.438       .  S
Zr97        O102   2.403       .  S
O98         C103   1.288       .  A
O99         H116   0.990       .  S
O99         H131   0.990       .  S
O100        H117   0.990       .  S
O101        H121   0.990       .  S
O101        H130   0.989       .  S
O102        C103   1.278       .  A
C103       C3973   1.482       .  S
O104        H123   0.991       .  S
O104        H127   0.990       .  S
O105        H119   0.990       .  S
O105        H126   0.990       .  S
O106        C110   1.289       .  A
O107        C110   1.282       .  A
O108        H118   0.990       .  S
O109        H122   0.990       .  S
C110       C3893   1.496       .  S
Zr133       O134   2.442       .  S
Zr133       O135   2.452       .  S
Zr133       O136   2.456       .  S
Zr133       O139   2.447       .  S
Zr133       O141   2.385       .  S
Zr133       O142   2.386       .  S
Zr133       O143   2.416       .  S
Zr133       O144   2.399       .  S
O134        H190   0.989       .  S
O134        H198   0.990       .  S
O135        C155   1.285       .  A
O136        C157   1.287       .  A
O137       Zr147   2.431       .  S
O137        C156   1.284       .  A
O138       Zr146   2.444       .  S
O138        C157   1.287       .  A
O139        C156   1.287       .  A
O140       Zr148   2.395       .  S
O140        C155   1.277       .  A
O141       Zr146   2.399       .  S
O141       Zr148   2.385       .  S
O142       Zr147   2.396       .  S
O142       Zr148   2.382       .  S
O142        H177   0.966       .  S
O143       Zr146   2.401       .  S
O143       Zr163   2.387       .  S
O143        H180   0.964       .  S
O144       Zr147   2.388       .  S
O144       Zr163   2.388       .  S
Zr145       O170   2.442   1_554  S
Zr145       O164   2.445   1_554  S
Zr145       O172   2.459       .  S
Zr145       O160   2.458       .  S
Zr145       O151   2.396       .  S
Zr145       O152   2.415       .  S
Zr145       O153   2.385       .  S
Zr145       O154   2.386       .  S
Zr146       O165   2.434       .  S
Zr146       O158   2.436       .  S
Zr146       O159   2.435       .  S
Zr146       O152   2.407       .  S
Zr146       O153   2.400       .  S
Zr147       O149   2.435       .  S
Zr147       O171   2.438       .  S
Zr147       O173   2.425       .  S
Zr147       O151   2.390       .  S
Zr147       O154   2.397       .  S
Zr148       O174   2.435       .  S
Zr148       O175   2.436       .  S
Zr148       O150   2.437       .  S
Zr148       O151   2.382       .  S
Zr148       O152   2.383       .  S
O149        H186   0.990       .  S
O150        H181   0.990       .  S
O150        H195   0.990       .  S
O152        H178   0.964       .  S
O153       Zr163   2.379       .  S
O154       Zr163   2.381       .  S
O154        H179   0.966   1_554  S
C155       C3804   1.484       .  S
C156       C4024   1.491       .  S
C157       C3744   1.487       .  S
O158        H194   0.990       .  S
O159        C161   1.285       .  A
O160        C161   1.288       .  A
C161       C3753   1.486       .  S
O162       Zr163   2.439       .  S
O162        H191   0.990   1_554  S
Zr163       O166   2.438   1_554  S
Zr163       O167   2.439   1_554  S
Zr163       O168   2.407   1_554  S
O164        C169   1.284       .  A
O165        H182   0.990       .  S
O165        H197   0.990       .  S
O166        H183   0.990       .  S
O167        H187   0.990       .  S
O167        H196   0.990   1_556  S
O168        C169   1.279       .  A
C169       C3773   1.475       .  S
O170        H189   0.991   1_556  S
O170        H193   0.990       .  S
O171        H185   0.990       .  S
O171        H192   0.990       .  S
O172        C176   1.289       .  A
O173        C176   1.284       .  A
O174        H184   0.990       .  S
O175        H188   0.990       .  S
C176       C3813   1.490       .  S
Zr199       O200   2.441       .  S
Zr199       O201   2.440       .  S
Zr199       O202   2.468       .  S
Zr199       O205   2.453       .  S
Zr199       O207   2.385       .  S
Zr199       O208   2.392       .  S
Zr199       O209   2.411       .  S
Zr199       O210   2.398       .  S
O200        H256   0.990       .  S
O200        H264   0.990       .  S
O201        C221   1.283       .  A
O202        C223   1.289       .  A
O203       Zr213   2.433       .  S
O203        C222   1.285       .  A
O204       Zr212   2.418       .  S
O204        C223   1.282       .  A
O205        C222   1.288       .  A
O206       Zr214   2.409       .  S
O206        C221   1.279       .  A
O207       Zr212   2.401       .  S
O207       Zr214   2.385       .  S
O208       Zr213   2.393       .  S
O208       Zr214   2.379       .  S
O208        H243   0.966       .  S
O209       Zr212   2.400       .  S
O209       Zr229   2.388       .  S
O209        H246   0.964       .  S
O210       Zr213   2.384       .  S
O210       Zr229   2.377       .  S
Zr211       O236   2.442       .  S
Zr211       O230   2.440       .  S
Zr211       O238   2.445       .  S
Zr211       O226   2.453       .  S
Zr211       O217   2.408       .  S
Zr211       O218   2.407       .  S
Zr211       O219   2.382       .  S
Zr211       O220   2.389       .  S
Zr212       O231   2.436       .  S
Zr212       O224   2.434       .  S
Zr212       O225   2.437       .  S
Zr212       O218   2.395       .  S
Zr212       O219   2.390       .  S
Zr213       O215   2.435       .  S
Zr213       O237   2.440       .  S
Zr213       O239   2.423       .  S
Zr213       O217   2.396       .  S
Zr213       O220   2.398       .  S
Zr214       O240   2.436       .  S
Zr214       O241   2.437       .  S
Zr214       O216   2.436       .  S
Zr214       O217   2.393       .  S
Zr214       O218   2.382       .  S
O215        H252   0.990       .  S
O216        H247   0.990       .  S
O216        H261   0.990       .  S
O218        H244   0.964       .  S
O219       Zr229   2.383       .  S
O220       Zr229   2.382       .  S
O220        H245   0.966       .  S
C221       C3784   1.469       .  S
C222       C3904   1.483       .  S
C223       C3673   1.488       .  S
O224        H260   0.990       .  S
O225        C227   1.285       .  A
O226        C227   1.289       .  A
C227       C3693   1.494       .  S
O228       Zr229   2.439       .  S
O228        H257   0.990       .  S
Zr229       O232   2.437       .  S
Zr229       O233   2.440       .  S
Zr229       O234   2.397       .  S
O230        C235   1.284       .  A
O231        H248   0.990       .  S
O231        H263   0.990       .  S
O232        H249   0.990       .  S
O233        H253   0.990       .  S
O233        H262   0.990       .  S
O234        C235   1.278       .  A
C235       C3793   1.473       .  S
O236        H255   0.990       .  S
O236        H259   0.990       .  S
O237        H251   0.990       .  S
O237        H258   0.990       .  S
O238        C242   1.284       .  A
O239        C242   1.282       .  A
O240        H250   0.990       .  S
O241        H254   0.990       .  S
C242       C3713   1.474       .  S
Zr265       O266   2.442       .  S
Zr265       O267   2.444       .  S
Zr265       O268   2.447       .  S
Zr265       O271   2.452       .  S
Zr265       O273   2.384       .  S
Zr265       O274   2.381       .  S
Zr265       O275   2.413       .  S
Zr265       O276   2.399       .  S
O266        H322   0.990       .  S
O266        H330   0.990       .  S
O267        C287   1.285       .  A
O268        C289   1.286       .  A
O269       Zr279   2.433       .  S
O269        C288   1.284       .  A
O270       Zr278   2.428       .  S
O270        C289   1.283       .  A
O271        C288   1.288       .  A
O272       Zr280   2.408       .  S
O272        C287   1.279       .  A
O273       Zr278   2.395       .  S
O273       Zr280   2.380       .  S
O274       Zr279   2.390       .  S
O274       Zr280   2.377       .  S
O274        H309   0.966       .  S
O275       Zr278   2.403       .  S
O275       Zr295   2.391       .  S
O275        H312   0.965       .  S
O276       Zr279   2.387       .  S
O276       Zr295   2.390       .  S
Zr277       O302   2.441       .  S
Zr277       O296   2.443       .  S
Zr277       O304   2.455       .  S
Zr277       O292   2.457       .  S
Zr277       O283   2.407       .  S
Zr277       O284   2.408       .  S
Zr277       O285   2.383       .  S
Zr277       O286   2.390       .  S
Zr278       O297   2.436       .  S
Zr278       O290   2.435       .  S
Zr278       O291   2.435       .  S
Zr278       O284   2.398       .  S
Zr278       O285   2.396       .  S
Zr279       O281   2.435       .  S
Zr279       O303   2.438       .  S
Zr279       O305   2.412       .  S
Zr279       O283   2.396       .  S
Zr279       O286   2.397       .  S
Zr280       O306   2.435       .  S
Zr280       O307   2.435       .  S
Zr280       O282   2.437       .  S
Zr280       O283   2.390       .  S
Zr280       O284   2.384       .  S
O281        H318   0.990       .  S
O282        H313   0.990       .  S
O282        H327   0.989       .  S
O284        H310   0.965       .  S
O285       Zr295   2.384       .  S
O286       Zr295   2.380       .  S
O286        H311   0.966       .  S
C287       C3633   1.472       .  S
C288       C3653   1.491       .  S
C289       C3593   1.485       .  S
O290        H326   0.990       .  S
O291        C293   1.286       .  A
O292        C293   1.288       .  A
C293       C3573   1.488       .  S
O294       Zr295   2.440       .  S
O294        H323   0.990       .  S
Zr295       O298   2.438       .  S
Zr295       O299   2.437       .  S
Zr295       O300   2.409       .  S
O296        C301   1.284       .  A
O297        H314   0.990       .  S
O297        H329   0.990       .  S
O298        H315   0.990       .  S
O299        H319   0.990       .  S
O299        H328   0.990       .  S
O300        C301   1.279       .  A
C301       C3613   1.474       .  S
O302        H321   0.990       .  S
O302        H325   0.990       .  S
O303        H317   0.990       .  S
O303        H324   0.989       .  S
O304        C308   1.287       .  A
O305        C308   1.282       .  A
O306        H316   0.990       .  S
O307        H320   0.990       .  S
C308       C3724   1.480       .  S
Zr331       O332   2.442   1_556  S
Zr331       O333   2.451   1_556  S
Zr331       O334   2.465       .  S
Zr331       O337   2.459       .  S
Zr331       O339   2.386       .  S
Zr331       O340   2.394       .  S
Zr331       O341   2.414       .  S
Zr331       O342   2.401       .  S
O332        H388   0.990       .  S
O332        H396   0.991   1_554  S
O333        C353   1.285       .  A
O334        C355   1.288       .  A
O335       Zr345   2.426       .  S
O335        C354   1.284       .  A
O336       Zr344   2.442       .  S
O336        C355   1.287       .  A
O337        C354   1.289       .  A
O338       Zr346   2.402   1_554  S
O338        C353   1.278       .  A
O339       Zr344   2.400       .  S
O339       Zr346   2.386       .  S
O340       Zr345   2.398       .  S
O340       Zr346   2.375       .  S
O340        H375   0.966   1_556  S
O341       Zr344   2.400       .  S
O341       Zr361   2.373       .  S
O341        H378   0.963       .  S
O342       Zr345   2.386       .  S
O342       Zr361   2.376       .  S
Zr343       O368   2.441       .  S
Zr343       O362   2.471       .  S
Zr343       O370   2.459       .  S
Zr343       O358   2.471       .  S
Zr343       O349   2.412       .  S
Zr343       O350   2.415       .  S
Zr343       O351   2.380       .  S
Zr343       O352   2.388       .  S
Zr344       O363   2.432       .  S
Zr344       O356   2.436       .  S
Zr344       O357   2.427       .  S
Zr344       O350   2.399       .  S
Zr344       O351   2.395       .  S
Zr345       O347   2.435       .  S
Zr345       O369   2.437       .  S
Zr345       O371   2.422       .  S
Zr345       O349   2.394       .  S
Zr345       O352   2.396       .  S
Zr346       O372   2.436   1_556  S
Zr346       O373   2.436       .  S
Zr346       O348   2.437   1_556  S
Zr346       O349   2.390       .  S
Zr346       O350   2.380       .  S
O347        H384   0.990       .  S
O348        H379   0.990       .  S
O348        H393   0.990       .  S
O350        H376   0.964       .  S
O351       Zr361   2.385       .  S
O352       Zr361   2.380       .  S
O352        H377   0.966       .  S
C353       C3644   1.491       .  S
C354       C3824   1.482       .  S
C355       C3513   1.486       .  S
O356        H392   0.990       .  S
O357        C359   1.285       .  A
O358        C359   1.291       .  A
C359       C3533   1.492       .  S
O360       Zr361   2.440       .  S
O360        H389   0.990       .  S
Zr361       O364   2.438       .  S
Zr361       O365   2.436       .  S
Zr361       O366   2.385       .  S
O362        C367   1.290       .  A
O363        H380   0.990       .  S
O363        H395   0.989       .  S
O364        H381   0.990       .  S
O365        H385   0.990       .  S
O365        H394   0.989       .  S
O366        C367   1.274       .  A
C367       C3624   1.477       .  S
O368        H387   0.990       .  S
O368        H391   0.990       .  S
O369        H383   0.990       .  S
O369        H390   0.990       .  S
O370        C374   1.287       .  A
O371        C374   1.283       .  A
O372        H382   0.990       .  S
O373        H386   0.990       .  S
C374       C3553   1.483       .  S
Zr397       O398   2.440       .  S
Zr397       O399   2.461       .  S
Zr397       O400   2.475       .  S
Zr397       O403   2.451       .  S
Zr397       O405   2.379       .  S
Zr397       O406   2.392       .  S
Zr397       O407   2.415       .  S
Zr397       O408   2.410       .  S
O398        H454   0.990       .  S
O398        H462   0.989       .  S
O399        C419   1.288       .  A
O400        C421   1.290       .  A
O401       Zr411   2.449       .  S
O401        C420   1.289       .  A
O402       Zr410   2.417       .  S
O402        C421   1.282       .  A
O403        C420   1.287       .  A
O404       Zr412   2.391       .  S
O404        C419   1.275       .  A
O405       Zr410   2.392       .  S
O405       Zr412   2.384       .  S
O406       Zr411   2.396       .  S
O406       Zr412   2.383       .  S
O406        H441   0.966       .  S
O407       Zr410   2.404       .  S
O407       Zr427   2.385       .  S
O407        H444   0.964       .  S
O408       Zr411   2.390       .  S
O408       Zr427   2.393       .  S
Zr409       O434   2.441       .  S
Zr409       O428   2.446       .  S
Zr409       O436   2.454       .  S
Zr409       O424   2.466       .  S
Zr409       O415   2.403       .  S
Zr409       O416   2.411       .  S
Zr409       O417   2.381       .  S
Zr409       O418   2.391       .  S
Zr410       O429   2.436       .  S
Zr410       O422   2.436       .  S
Zr410       O423   2.427       .  S
Zr410       O416   2.398       .  S
Zr410       O417   2.398       .  S
Zr411       O413   2.435       .  S
Zr411       O435   2.439       .  S
Zr411       O437   2.438       .  S
Zr411       O415   2.393       .  S
Zr411       O418   2.401       .  S
Zr412       O438   2.435       .  S
Zr412       O439   2.437       .  S
Zr412       O414   2.439       .  S
Zr412       O415   2.381       .  S
Zr412       O416   2.381       .  S
O413        H450   0.990       .  S
O414        H445   0.991       .  S
O414        H459   0.990       .  S
O416        H442   0.964       .  S
O417       Zr427   2.380       .  S
O418       Zr427   2.379       .  S
O418        H443   0.966       .  S
C419       C3473   1.478       .  S
C420       C3664   1.494       .  S
C421       C3453   1.485       .  S
O422        H458   0.990       .  S
O423        C425   1.283       .  A
O424        C425   1.289       .  A
C425       C3444   1.489       .  S
O426       Zr427   2.439       .  S
O426        H455   0.990       .  S
Zr427       O430   2.438       .  S
Zr427       O431   2.441       .  S
Zr427       O432   2.409       .  S
O428        C433   1.284       .  A
O429        H446   0.990       .  S
O429        H461   0.990       .  S
O430        H447   0.990       .  S
O431        H451   0.990       .  S
O431        H460   0.990       .  S
O432        C433   1.278       .  A
C433       C3493   1.476       .  S
O434        H453   0.991       .  S
O434        H457   0.990       .  S
O435        H449   0.990       .  S
O435        H456   0.990       .  S
O436        C440   1.288       .  A
O437        C440   1.287       .  A
O438        H448   0.990       .  S
O439        H452   0.990       .  S
C440       C4004   1.494       .  S
Zr463       O464   2.441       .  S
Zr463       O465   2.444       .  S
Zr463       O466   2.463       .  S
Zr463       O469   2.448       .  S
Zr463       O471   2.383       .  S
Zr463       O472   2.389       .  S
Zr463       O473   2.408       .  S
Zr463       O474   2.404       .  S
O464        H520   0.991       .  S
O464        H528   0.990       .  S
O465        C485   1.285       .  A
O466        C487   1.289       .  A
O467       Zr477   2.441       .  S
O467        C486   1.286       .  A
O468       Zr476   2.440       .  S
O468        C487   1.285       .  A
O469        C486   1.287       .  A
O470       Zr478   2.408       .  S
O470        C485   1.279       .  A
O471       Zr476   2.397       .  S
O471       Zr478   2.386       .  S
O472       Zr477   2.395       .  S
O472       Zr478   2.375       .  S
O472        H507   0.966       .  S
O473       Zr476   2.401       .  S
O473       Zr493   2.380       .  S
O473        H510   0.964       .  S
O474       Zr477   2.390       .  S
O474       Zr493   2.388       .  S
Zr475       O500   2.443       .  S
Zr475       O494   2.459       .  S
Zr475       O502   2.448       .  S
Zr475       O490   2.455       .  S
Zr475       O481   2.408       .  S
Zr475       O482   2.414       .  S
Zr475       O483   2.381       .  S
Zr475       O484   2.387       .  S
Zr476       O495   2.435       .  S
Zr476       O488   2.435       .  S
Zr476       O489   2.432       .  S
Zr476       O482   2.401       .  S
Zr476       O483   2.401       .  S
Zr477       O479   2.435       .  S
Zr477       O501   2.439       .  S
Zr477       O503   2.430       .  S
Zr477       O481   2.396       .  S
Zr477       O484   2.396       .  S
Zr478       O504   2.436       .  S
Zr478       O505   2.436       .  S
Zr478       O480   2.436       .  S
Zr478       O481   2.386       .  S
Zr478       O482   2.392       .  S
O479        H516   0.990       .  S
O480        H511   0.990       .  S
O480        H525   0.990       .  S
O482        H508   0.965       .  S
O483       Zr493   2.380       .  S
O484       Zr493   2.379       .  S
O484        H509   0.966       .  S
C485       C3484   1.471       .  S
C486       C3884   1.487       .  S
C487       C3393   1.492       .  S
O488        H524   0.990       .  S
O489        C491   1.285       .  A
O490        C491   1.288       .  A
C491       C3413   1.489       .  S
O492       Zr493   2.438       .  S
O492        H521   0.990       .  S
Zr493       O496   2.437       .  S
Zr493       O497   2.439       .  S
Zr493       O498   2.401       .  S
O494        C499   1.287       .  A
O495        H512   0.990       .  S
O495        H527   0.990       .  S
O496        H513   0.990       .  S
O497        H517   0.990       .  S
O497        H526   0.989       .  S
O498        C499   1.278       .  A
C499       C3504   1.482       .  S
O500        H519   0.990       .  S
O500        H523   0.990       .  S
O501        H515   0.990       .  S
O501        H522   0.990       .  S
O502        C506   1.287       .  A
O503        C506   1.283       .  A
O504        H514   0.990       .  S
O505        H518   0.990       .  S
C506       C3564   1.493       .  S
Zr529       O530   2.442       .  S
Zr529       O531   2.456       .  S
Zr529       O532   2.460       .  S
Zr529       O535   2.455       .  S
Zr529       O537   2.383       .  S
Zr529       O538   2.393       .  S
Zr529       O539   2.414       .  S
Zr529       O540   2.404       .  S
O530        H586   0.990       .  S
O530        H594   0.991       .  S
O531        C551   1.286       .  A
O532        C553   1.288       .  A
O533       Zr543   2.418       .  S
O533        C552   1.284       .  A
O534       Zr542   2.422       .  S
O534        C553   1.282       .  A
O535        C552   1.288       .  A
O536       Zr544   2.402       .  S
O536        C551   1.279       .  A
O537       Zr542   2.398       .  S
O537       Zr544   2.384       .  S
O538       Zr543   2.394       .  S
O538       Zr544   2.374       .  S
O538        H573   0.966       .  S
O539       Zr542   2.400       .  S
O539       Zr559   2.383       .  S
O539        H576   0.964       .  S
O540       Zr543   2.387       .  S
O540       Zr559   2.380       .  S
Zr541       O566   2.436   1_554  S
Zr541       O560   2.459   1_554  S
Zr541       O568   2.478       .  S
Zr541       O556   2.463       .  S
Zr541       O547   2.410       .  S
Zr541       O548   2.413       .  S
Zr541       O549   2.385       .  S
Zr541       O550   2.388       .  S
Zr542       O561   2.436       .  S
Zr542       O554   2.435       .  S
Zr542       O555   2.423       .  S
Zr542       O548   2.395       .  S
Zr542       O549   2.393       .  S
Zr543       O545   2.436       .  S
Zr543       O567   2.436       .  S
Zr543       O569   2.421       .  S
Zr543       O547   2.389       .  S
Zr543       O550   2.394       .  S
Zr544       O570   2.436       .  S
Zr544       O571   2.435       .  S
Zr544       O546   2.436       .  S
Zr544       O547   2.393       .  S
Zr544       O548   2.378       .  S
O545        H582   0.990       .  S
O546        H577   0.990       .  S
O546        H591   0.990       .  S
O548        H574   0.964       .  S
O549       Zr559   2.384       .  S
O550       Zr559   2.381       .  S
O550        H575   0.966   1_554  S
C551       C3333   1.488       .  S
C552       C3304   1.483       .  S
C553       C3384   1.477       .  S
O554        H590   0.990       .  S
O555        C557   1.283       .  A
O556        C557   1.290       .  A
C557       C3353   1.483       .  S
O558       Zr559   2.440       .  S
O558        H587   0.990   1_554  S
Zr559       O562   2.437   1_554  S
Zr559       O563   2.439   1_554  S
Zr559       O564   2.396   1_554  S
O560        C565   1.288       .  A
O561        H578   0.990       .  S
O561        H593   0.990       .  S
O562        H579   0.990       .  S
O563        H583   0.990       .  S
O563        H592   0.990   1_556  S
O564        C565   1.277       .  A
C565       C3324   1.477       .  S
O566        H585   0.989       .  S
O566        H589   0.990   1_556  S
O567        H581   0.990       .  S
O567        H588   0.990       .  S
O568        C572   1.291       .  A
O569        C572   1.284       .  A
O570        H580   0.990       .  S
O571        H584   0.990       .  S
C572       C3764   1.508       .  S
Zr595       O596   2.439       .  S
Zr595       O597   2.452       .  S
Zr595       O598   2.466       .  S
Zr595       O601   2.463       .  S
Zr595       O603   2.388       .  S
Zr595       O604   2.392       .  S
Zr595       O605   2.414       .  S
Zr595       O606   2.401       .  S
O596        H652   0.989       .  S
O596        H660   0.990       .  S
O597        C617   1.286       .  A
O598        C619   1.289       .  A
O599       Zr609   2.425       .  S
O599        C618   1.285       .  A
O600       Zr608   2.425       .  S
O600        C619   1.284       .  A
O601        C618   1.289       .  A
O602       Zr610   2.406       .  S
O602        C617   1.278       .  A
O603       Zr608   2.399       .  S
O603       Zr610   2.379       .  S
O604       Zr609   2.401       .  S
O604       Zr610   2.378       .  S
O604        H639   0.966       .  S
O605       Zr608   2.405       .  S
O605       Zr625   2.377       .  S
O605        H642   0.964       .  S
O606       Zr609   2.388       .  S
O606       Zr625   2.383       .  S
Zr607       O632   2.442       .  S
Zr607       O626   2.457       .  S
Zr607       O634   2.450       .  S
Zr607       O622   2.461       .  S
Zr607       O613   2.406       .  S
Zr607       O614   2.415       .  S
Zr607       O615   2.380       .  S
Zr607       O616   2.389       .  S
Zr608       O627   2.435       .  S
Zr608       O620   2.437       .  S
Zr608       O621   2.435       .  S
Zr608       O614   2.400       .  S
Zr608       O615   2.394       .  S
Zr609       O611   2.435       .  S
Zr609       O633   2.436       .  S
Zr609       O635   2.436       .  S
Zr609       O613   2.389       .  S
Zr609       O616   2.395       .  S
Zr610       O636   2.436       .  S
Zr610       O637   2.435       .  S
Zr610       O612   2.437       .  S
Zr610       O613   2.390       .  S
Zr610       O614   2.387       .  S
O611        H648   0.990       .  S
O612        H643   0.990       .  S
O612        H657   0.990       .  S
O614        H640   0.964       .  S
O615       Zr625   2.385       .  S
O616       Zr625   2.384       .  S
O616        H641   0.966       .  S
C617       C3344   1.476       .  S
C618       C3704   1.491       .  S
C619       C3253   1.491       .  S
O620        H656   0.990       .  S
O621        C623   1.284       .  A
O622        C623   1.288       .  A
C623       C3273   1.479       .  S
O624       Zr625   2.440       .  S
O624        H653   0.990       .  S
Zr625       O628   2.439       .  S
Zr625       O629   2.438       .  S
Zr625       O630   2.396       .  S
O626        C631   1.287       .  A
O627        H644   0.990       .  S
O627        H659   0.990       .  S
O628        H645   0.990       .  S
O629        H649   0.990       .  S
O629        H658   0.990       .  S
O630        C631   1.277       .  A
C631       C3313   1.482       .  S
O632        H651   0.991       .  S
O632        H655   0.990       .  S
O633        H647   0.990       .  S
O633        H654   0.990       .  S
O634        C638   1.287       .  A
O635        C638   1.285       .  A
O636        H646   0.990       .  S
O637        H650   0.990       .  S
C638       C3233   1.485       .  S
Zr661       O662   2.441       .  S
Zr661       O663   2.447       .  S
Zr661       O664   2.459       .  S
Zr661       O667   2.455       .  S
Zr661       O669   2.389       .  S
Zr661       O670   2.390       .  S
Zr661       O671   2.414       .  S
Zr661       O672   2.399       .  S
O662        H718   0.990       .  S
O662        H726   0.990       .  S
O663        C683   1.284       .  A
O664        C685   1.287       .  A
O665       Zr675   2.417       .  S
O665        C684   1.283       .  A
O666       Zr674   2.429       .  S
O666        C685   1.284       .  A
O667        C684   1.288       .  A
O668       Zr676   2.403       .  S
O668        C683   1.279       .  A
O669       Zr674   2.402       .  S
O669       Zr676   2.385       .  S
O670       Zr675   2.391       .  S
O670       Zr676   2.373       .  S
O670        H705   0.966       .  S
O671       Zr674   2.396       .  S
O671       Zr691   2.393       .  S
O671        H708   0.965       .  S
O672       Zr675   2.385       .  S
O672       Zr691   2.381       .  S
Zr673       O698   2.442       .  S
Zr673       O692   2.451       .  S
Zr673       O700   2.455       .  S
Zr673       O688   2.457       .  S
Zr673       O679   2.407       .  S
Zr673       O680   2.413       .  S
Zr673       O681   2.387       .  S
Zr673       O682   2.384       .  S
Zr674       O693   2.436       .  S
Zr674       O686   2.435       .  S
Zr674       O687   2.426       .  S
Zr674       O680   2.400       .  S
Zr674       O681   2.394       .  S
Zr675       O677   2.435       .  S
Zr675       O699   2.440       .  S
Zr675       O701   2.420       .  S
Zr675       O679   2.388       .  S
Zr675       O682   2.393       .  S
Zr676       O702   2.435       .  S
Zr676       O703   2.436       .  S
Zr676       O678   2.437       .  S
Zr676       O679   2.390       .  S
Zr676       O680   2.376       .  S
O677        H714   0.990       .  S
O678        H709   0.990       .  S
O678        H723   0.989       .  S
O680        H706   0.961       .  S
O681       Zr691   2.383       .  S
O682       Zr691   2.382       .  S
O682        H707   0.966       .  S
C683       C3204   1.496       .  S
C684       C3944   1.481       .  S
C685       C3224   1.492       .  S
O686        H722   0.990       .  S
O687        C689   1.282       .  A
O688        C689   1.287       .  A
C689       C3373   1.469       .  S
O690       Zr691   2.440       .  S
O690        H719   0.990       .  S
Zr691       O694   2.438       .  S
Zr691       O695   2.438       .  S
Zr691       O696   2.406       .  S
O692        C697   1.286       .  A
O693        H710   0.990       .  S
O693        H725   0.990       .  S
O694        H711   0.990       .  S
O695        H715   0.990       .  S
O695        H724   0.989       .  S
O696        C697   1.279       .  A
C697       C3173   1.476       .  S
O698        H717   0.990       .  S
O698        H721   0.991       .  S
O699        H713   0.990       .  S
O699        H720   0.990       .  S
O700        C704   1.288       .  A
O701        C704   1.283       .  A
O702        H712   0.990       .  S
O703        H716   0.990       .  S
C704       C3153   1.483       .  S
Zr727       O728   2.442       .  S
Zr727       O729   2.447       .  S
Zr727       O730   2.467       .  S
Zr727       O733   2.455       .  S
Zr727       O735   2.387       .  S
Zr727       O736   2.389       .  S
Zr727       O737   2.410       .  S
Zr727       O738   2.406       .  S
O728        H784   0.990       .  S
O728        H792   0.990       .  S
O729        C749   1.286       .  A
O730        C751   1.289       .  A
O731       Zr741   2.417       .  S
O731        C750   1.283       .  A
O732       Zr740   2.421       .  S
O732        C751   1.284       .  A
O733        C750   1.288       .  A
O734       Zr742   2.407       .  S
O734        C749   1.279       .  A
O735       Zr740   2.399       .  S
O735       Zr742   2.383       .  S
O736       Zr741   2.389       .  S
O736       Zr742   2.373       .  S
O736        H771   0.966       .  S
O737       Zr740   2.404       .  S
O737       Zr757   2.388       .  S
O737        H774   0.965       .  S
O738       Zr741   2.392       .  S
O738       Zr757   2.389       .  S
Zr739       O764   2.440       .  S
Zr739       O758   2.457       .  S
Zr739       O766   2.457       .  S
Zr739       O754   2.457       .  S
Zr739       O745   2.405       .  S
Zr739       O746   2.412       .  S
Zr739       O747   2.384       .  S
Zr739       O748   2.388       .  S
Zr740       O759   2.437       .  S
Zr740       O752   2.434       .  S
Zr740       O753   2.436       .  S
Zr740       O746   2.394       .  S
Zr740       O747   2.395       .  S
Zr741       O743   2.435       .  S
Zr741       O765   2.440       .  S
Zr741       O767   2.420       .  S
Zr741       O745   2.393       .  S
Zr741       O748   2.394       .  S
Zr742       O768   2.435       .  S
Zr742       O769   2.436       .  S
Zr742       O744   2.437       .  S
Zr742       O745   2.392       .  S
Zr742       O746   2.381       .  S
O743        H780   0.990       .  S
O744        H775   0.990       .  S
O744        H789   0.990       .  S
O746        H772   0.964       .  S
O747       Zr757   2.383       .  S
O748       Zr757   2.383       .  S
O748        H773   0.966       .  S
C749       C3184   1.472       .  S
C750       C3864   1.486       .  S
C751       C3144   1.492       .  S
O752        H788   0.990       .  S
O753        C755   1.285       .  A
O754        C755   1.288       .  A
C755       C3284   1.484       .  S
O756       Zr757   2.441       .  S
O756        H785   0.991       .  S
Zr757       O760   2.438       .  S
Zr757       O761   2.441       .  S
Zr757       O762   2.404       .  S
O758        C763   1.286       .  A
O759        H776   0.990       .  S
O759        H791   0.990       .  S
O760        H777   0.990       .  S
O761        H781   0.990       .  S
O761        H790   0.990       .  S
O762        C763   1.278       .  A
C763       C3193   1.474       .  S
O764        H783   0.990       .  S
O764        H787   0.990       .  S
O765        H779   0.990       .  S
O765        H786   0.990       .  S
O766        C770   1.287       .  A
O767        C770   1.283       .  A
O768        H778   0.990       .  S
O769        H782   0.990       .  S
C770       C3113   1.484       .  S
Zr793       O794   2.441       .  S
Zr793       O795   2.449       .  S
Zr793       O796   2.463       .  S
Zr793       O799   2.458       .  S
Zr793       O801   2.388       .  S
Zr793       O802   2.392       .  S
Zr793       O803   2.414       .  S
Zr793       O804   2.402       .  S
O794        H850   0.990       .  S
O794        H858   0.990       .  S
O795        C815   1.285       .  A
O796        C817   1.288       .  A
O797       Zr807   2.423       .  S
O797        C816   1.284       .  A
O798       Zr806   2.429       .  S
O798        C817   1.283       .  A
O799        C816   1.288       .  A
O800       Zr808   2.402       .  S
O800        C815   1.277       .  A
O801       Zr806   2.401       .  S
O801       Zr808   2.382       .  S
O802       Zr807   2.395       .  S
O802       Zr808   2.381       .  S
O802        H837   0.966       .  S
O803       Zr806   2.399       .  S
O803       Zr823   2.385       .  S
O803        H840   0.965       .  S
O804       Zr807   2.386       .  S
O804       Zr823   2.385       .  S
Zr805       O830   2.439       .  S
Zr805       O824   2.460       .  S
Zr805       O832   2.455       .  S
Zr805       O820   2.476       .  S
Zr805       O811   2.408       .  S
Zr805       O812   2.413       .  S
Zr805       O813   2.385       .  S
Zr805       O814   2.391       .  S
Zr806       O825   2.434       .  S
Zr806       O818   2.435       .  S
Zr806       O819   2.427       .  S
Zr806       O812   2.402       .  S
Zr806       O813   2.393       .  S
Zr807       O809   2.436       .  S
Zr807       O831   2.435       .  S
Zr807       O833   2.429       .  S
Zr807       O811   2.389       .  S
Zr807       O814   2.391       .  S
Zr808       O834   2.436       .  S
Zr808       O835   2.435       .  S
Zr808       O810   2.436       .  S
Zr808       O811   2.392       .  S
Zr808       O812   2.380       .  S
O809        H846   0.990       .  S
O810        H841   0.990       .  S
O810        H855   0.990       .  S
O812        H838   0.964       .  S
O813       Zr823   2.384       .  S
O814       Zr823   2.380       .  S
O814        H839   0.966       .  S
C815       C3053   1.469       .  S
C816       C3033   1.489       .  S
C817       C3104   1.480       .  S
O818        H854   0.990       .  S
O819        C821   1.285       .  A
O820        C821   1.291       .  A
C821       C3213   1.503       .  S
O822       Zr823   2.439       .  S
O822        H851   0.990       .  S
Zr823       O826   2.438       .  S
Zr823       O827   2.438       .  S
Zr823       O828   2.400       .  S
O824        C829   1.289       .  A
O825        H842   0.990       .  S
O825        H857   0.990       .  S
O826        H843   0.990       .  S
O827        H847   0.990       .  S
O827        H856   0.990       .  S
O828        C829   1.278       .  A
C829       C3073   1.477       .  S
O830        H849   0.990       .  S
O830        H853   0.989       .  S
O831        H845   0.990       .  S
O831        H852   0.990       .  S
O832        C836   1.288       .  A
O833        C836   1.284       .  A
O834        H844   0.990       .  S
O835        H848   0.990       .  S
C836       C3433   1.488       .  S
Zr859       O860   2.440       .  S
Zr859       O861   2.454       .  S
Zr859       O862   2.466       .  S
Zr859       O865   2.479       .  S
Zr859       O867   2.390       .  S
Zr859       O868   2.391       .  S
Zr859       O869   2.415       .  S
Zr859       O870   2.398       .  S
O860        H916   0.990       .  S
O860        H924   0.990       .  S
O861        C881   1.286       .  A
O862        C883   1.289       .  A
O863       Zr873   2.418       .  S
O863        C882   1.284       .  A
O864       Zr872   2.408       .  S
O864        C883   1.281       .  A
O865        C882   1.293       .  A
O866       Zr874   2.397       .  S
O866        C881   1.278       .  A
O867       Zr872   2.400       .  S
O867       Zr874   2.378       .  S
O868       Zr873   2.391       .  S
O868       Zr874   2.380       .  S
O868        H903   0.966       .  S
O869       Zr872   2.400       .  S
O869       Zr889   2.391       .  S
O869        H906   0.965       .  S
O870       Zr873   2.384       .  S
O870       Zr889   2.384       .  S
Zr871       O896   2.442       .  S
Zr871       O890   2.459       .  S
Zr871       O898   2.456       .  S
Zr871       O886   2.450       .  S
Zr871       O877   2.408       .  S
Zr871       O878   2.417       .  S
Zr871       O879   2.380       .  S
Zr871       O880   2.386       .  S
Zr872       O891   2.434       .  S
Zr872       O884   2.435       .  S
Zr872       O885   2.434       .  S
Zr872       O878   2.393       .  S
Zr872       O879   2.385       .  S
Zr873       O875   2.435       .  S
Zr873       O897   2.437       .  S
Zr873       O899   2.412       .  S
Zr873       O877   2.389       .  S
Zr873       O880   2.395       .  S
Zr874       O900   2.436       .  S
Zr874       O901   2.435       .  S
Zr874       O876   2.438       .  S
Zr874       O877   2.390       .  S
Zr874       O878   2.376       .  S
O875        H912   0.990       .  S
O876        H907   0.990       .  S
O876        H921   0.990       .  S
O878        H904   0.964       .  S
O879       Zr889   2.382       .  S
O880       Zr889   2.382       .  S
O880        H905   0.966       .  S
C881       C3064   1.494       .  S
C882       C3404   1.501       .  S
C883       C3133   1.484       .  S
O884        H920   0.990       .  S
O885        C887   1.285       .  A
O886        C887   1.287       .  A
C887       C3013   1.480       .  S
O888       Zr889   2.438       .  S
O888        H917   0.990       .  S
Zr889       O892   2.437       .  S
Zr889       O893   2.439       .  S
Zr889       O894   2.400       .  S
O890        C895   1.287       .  A
O891        H908   0.990       .  S
O891        H923   0.990       .  S
O892        H909   0.990       .  S
O893        H913   0.990       .  S
O893        H922   0.990       .  S
O894        C895   1.278       .  A
C895       C3084   1.487       .  S
O896        H915   0.990       .  S
O896        H919   0.990       .  S
O897        H911   0.990       .  S
O897        H918   0.990       .  S
O898        C902   1.287       .  A
O899        C902   1.282       .  A
O900        H910   0.990       .  S
O901        H914   0.990       .  S
C902       C2993   1.484       .  S
Zr925       O926   2.441       .  S
Zr925       O927   2.454       .  S
Zr925       O928   2.469       .  S
Zr925       O931   2.460       .  S
Zr925       O933   2.384       .  S
Zr925       O934   2.386       .  S
Zr925       O935   2.417       .  S
Zr925       O936   2.406       .  S
O926        H982   0.990       .  S
O926        H990   0.990       .  S
O927        C947   1.287       .  A
O928        C949   1.290       .  A
O929       Zr939   2.420       .  S
O929        C948   1.283       .  A
O930       Zr938   2.419       .  S
O930        C949   1.283       .  A
O931        C948   1.289       .  A
O932       Zr940   2.397       .  S
O932        C947   1.276       .  A
O933       Zr938   2.403       .  S
O933       Zr940   2.386       .  S
O934       Zr939   2.392       .  S
O934       Zr940   2.376       .  S
O934        H969   0.966       .  S
O935       Zr938   2.398       .  S
O935       Zr955   2.383       .  S
O935        H972   0.964       .  S
O936       Zr939   2.388       .  S
O936       Zr955   2.392       .  S
Zr937       O962   2.443       .  S
Zr937       O956   2.441       .  S
Zr937       O964   2.440       .  S
Zr937       O952   2.453       .  S
Zr937       O943   2.402       .  S
Zr937       O944   2.411       .  S
Zr937       O945   2.379       .  S
Zr937       O946   2.390       .  S
Zr938       O957   2.436       .  S
Zr938       O950   2.434       .  S
Zr938       O951   2.425       .  S
Zr938       O944   2.402       .  S
Zr938       O945   2.390       .  S
Zr939       O941   2.435       .  S
Zr939       O963   2.437       .  S
Zr939       O965   2.424       .  S
Zr939       O943   2.391       .  S
Zr939       O946   2.391       .  S
Zr940       O966   2.436       .  S
Zr940       O967   2.436       .  S
Zr940       O942   2.437       .  S
Zr940       O943   2.386       .  S
Zr940       O944   2.383       .  S
O941        H978   0.990       .  S
O942        H973   0.990       .  S
O942        H987   0.990       .  S
O944        H970   0.965       .  S
O945       Zr955   2.381       .  S
O946       Zr955   2.380       .  S
O946        H971   0.966       .  S
C947       C2964   1.480       .  S
C948       C3584   1.486       .  S
C949       C3264   1.487       .  S
O950        H986   0.990       .  S
O951        C953   1.282       .  A
O952        C953   1.286       .  A
C953       C3093   1.474       .  S
O954       Zr955   2.441       .  S
O954        H983   0.990       .  S
Zr955       O958   2.438       .  S
Zr955       O959   2.437       .  S
Zr955       O960   2.412       .  S
O956        C961   1.284       .  A
O957        H974   0.990       .  S
O957        H989   0.990       .  S
O958        H975   0.990       .  S
O959        H979   0.990       .  S
O959        H988   0.990       .  S
O960        C961   1.280       .  A
C961       C2973   1.481       .  S
O962        H981   0.991       .  S
O962        H985   0.991       .  S
O963        H977   0.990       .  S
O963        H984   0.990       .  S
O964        C968   1.285       .  A
O965        C968   1.283       .  A
O966        H976   0.990       .  S
O967        H980   0.990       .  S
C968       C2933   1.477       .  S
Zr991       O992   2.442   1_556  S
Zr991       O993   2.451   1_556  S
Zr991       O994   2.453       .  S
Zr991       O997   2.442       .  S
Zr991       O999   2.381       .  S
Zr991      O1000   2.388       .  S
Zr991      O1001   2.413       .  S
Zr991      O1002   2.401       .  S
O992       H1048   0.990       .  S
O992       H1056   0.991   1_554  S
O993       C1013   1.285       .  A
O994       C1015   1.286       .  A
O995      Zr1005   2.437       .  S
O995       C1014   1.286       .  A
O996      Zr1004   2.438       .  S
O996       C1015   1.284       .  A
O997       C1014   1.286       .  A
O998      Zr1006   2.394   1_554  S
O998       C1013   1.276       .  A
O999      Zr1004   2.398       .  S
O999      Zr1006   2.387       .  S
O1000     Zr1005   2.393       .  S
O1000     Zr1006   2.374       .  S
O1000      H1035   0.965   1_556  S
O1001     Zr1004   2.400       .  S
O1001     Zr1021   2.387       .  S
O1001      H1038   0.964       .  S
O1002     Zr1005   2.391       .  S
O1002     Zr1021   2.385       .  S
Zr1003     O1028   2.441       .  S
Zr1003     O1022   2.449       .  S
Zr1003     O1030   2.455       .  S
Zr1003     O1018   2.447       .  S
Zr1003     O1009   2.403       .  S
Zr1003     O1010   2.412       .  S
Zr1003     O1011   2.382       .  S
Zr1003     O1012   2.388       .  S
Zr1004     O1023   2.436       .  S
Zr1004     O1016   2.435       .  S
Zr1004     O1017   2.433       .  S
Zr1004     O1010   2.399       .  S
Zr1004     O1011   2.401       .  S
Zr1005     O1007   2.435       .  S
Zr1005     O1029   2.438       .  S
Zr1005     O1031   2.440       .  S
Zr1005     O1009   2.393       .  S
Zr1005     O1012   2.396       .  S
Zr1006     O1032   2.436   1_556  S
Zr1006     O1033   2.435       .  S
Zr1006     O1008   2.437   1_556  S
Zr1006     O1009   2.387       .  S
Zr1006     O1010   2.383       .  S
O1007      H1044   0.990       .  S
O1008      H1039   0.990       .  S
O1008      H1053   0.990       .  S
O1010      H1036   0.964       .  S
O1011     Zr1021   2.381       .  S
O1012     Zr1021   2.382       .  S
O1012      H1037   0.966       .  S
C1013      C2984   1.472       .  S
C1014      C3524   1.489       .  S
C1015      C3364   1.477       .  S
O1016      H1052   0.990       .  S
O1017      C1019   1.284       .  A
O1018      C1019   1.286       .  A
C1019      C3024   1.473       .  S
O1020     Zr1021   2.440       .  S
O1020      H1049   0.990       .  S
Zr1021     O1024   2.438       .  S
Zr1021     O1025   2.436       .  S
Zr1021     O1026   2.410       .  S
O1022      C1027   1.285       .  A
O1023      H1040   0.990       .  S
O1023      H1055   0.990       .  S
O1024      H1041   0.990       .  S
O1025      H1045   0.990       .  S
O1025      H1054   0.990       .  S
O1026      C1027   1.280       .  A
C1027      C2953   1.478       .  S
O1028      H1047   0.990       .  S
O1028      H1051   0.990       .  S
O1029      H1043   0.990       .  S
O1029      H1050   0.989   1_556  S
O1030      C1034   1.287       .  A
O1031      C1034   1.286       .  A
O1032      H1042   0.990       .  S
O1033      H1046   0.990       .  S
C1034      C2924   1.493       .  S
Zr1057     O1058   2.442       .  S
Zr1057     O1059   2.445       .  S
Zr1057     O1060   2.465       .  S
Zr1057     O1063   2.443       .  S
Zr1057     O1065   2.386       .  S
Zr1057     O1066   2.391       .  S
Zr1057     O1067   2.407       .  S
Zr1057     O1068   2.404       .  S
O1058      H1114   0.990       .  S
O1058      H1122   0.990       .  S
O1059      C1079   1.284       .  A
O1060      C1081   1.288       .  A
O1061     Zr1071   2.423       .  S
O1061      C1080   1.285       .  A
O1062     Zr1070   2.443       .  S
O1062      C1081   1.285       .  A
O1063      C1080   1.286       .  A
O1064     Zr1072   2.396       .  S
O1064      C1079   1.278       .  A
O1065     Zr1070   2.403       .  S
O1065     Zr1072   2.386       .  S
O1066     Zr1071   2.392       .  S
O1066     Zr1072   2.371       .  S
O1066      H1101   0.966       .  S
O1067     Zr1070   2.401       .  S
O1067     Zr1087   2.382       .  S
O1067      H1104   0.964       .  S
O1068     Zr1071   2.393       .  S
O1068     Zr1087   2.384       .  S
Zr1069     O1094   2.442       .  S
Zr1069     O1088   2.453       .  S
Zr1069     O1096   2.448       .  S
Zr1069     O1084   2.455       .  S
Zr1069     O1075   2.404       .  S
Zr1069     O1076   2.414       .  S
Zr1069     O1077   2.383       .  S
Zr1069     O1078   2.387       .  S
Zr1070     O1089   2.434       .  S
Zr1070     O1082   2.434       .  S
Zr1070     O1083   2.433       .  S
Zr1070     O1076   2.406       .  S
Zr1070     O1077   2.399       .  S
Zr1071     O1073   2.435       .  S
Zr1071     O1095   2.437       .  S
Zr1071     O1097   2.432       .  S
Zr1071     O1075   2.386       .  S
Zr1071     O1078   2.392       .  S
Zr1072     O1098   2.436       .  S
Zr1072     O1099   2.436       .  S
Zr1072     O1074   2.436       .  S
Zr1072     O1075   2.385       .  S
Zr1072     O1076   2.379       .  S
O1073      H1110   0.990       .  S
O1074      H1105   0.990       .  S
O1074      H1119   0.990       .  S
O1076      H1102   0.964       .  S
O1077     Zr1087   2.386       .  S
O1078     Zr1087   2.381       .  S
O1078      H1103   0.966       .  S
C1079      C2853   1.488       .  S
C1080      C3604   1.484       .  S
C1081      C2873   1.484       .  S
O1082      H1118   0.990       .  S
O1083      C1085   1.285       .  A
O1084      C1085   1.286       .  A
C1085      C2893   1.478       .  S
O1086     Zr1087   2.439       .  S
O1086      H1115   0.990       .  S
Zr1087     O1090   2.438       .  S
Zr1087     O1091   2.440       .  S
Zr1087     O1092   2.394       .  S
O1088      C1093   1.286       .  A
O1089      H1106   0.990       .  S
O1089      H1121   0.990       .  S
O1090      H1107   0.990       .  S
O1091      H1111   0.990       .  S
O1091      H1120   0.990       .  S
O1092      C1093   1.277       .  A
C1093      C2833   1.478       .  S
O1094      H1113   0.990       .  S
O1094      H1117   0.990       .  S
O1095      H1109   0.990       .  S
O1095      H1116   0.990       .  S
O1096      C1100   1.286       .  A
O1097      C1100   1.285       .  A
O1098      H1108   0.990       .  S
O1099      H1112   0.990       .  S
C1100      C2813   1.486       .  S
Zr1123     O1124   2.442       .  S
Zr1123     O1125   2.445       .  S
Zr1123     O1126   2.465       .  S
Zr1123     O1129   2.452       .  S
Zr1123     O1131   2.381       .  S
Zr1123     O1132   2.390       .  S
Zr1123     O1133   2.407       .  S
Zr1123     O1134   2.404       .  S
O1124      H1180   0.990       .  S
O1124      H1188   0.991       .  S
O1125      C1145   1.284       .  A
O1126      C1147   1.287       .  A
O1127     Zr1137   2.434       .  S
O1127      C1146   1.286       .  A
O1128     Zr1136   2.431       .  S
O1128      C1147   1.283       .  A
O1129      C1146   1.288       .  A
O1130     Zr1138   2.401       .  S
O1130      C1145   1.278       .  A
O1131     Zr1136   2.397       .  S
O1131     Zr1138   2.384       .  S
O1132     Zr1137   2.395       .  S
O1132     Zr1138   2.377       .  S
O1132      H1167   0.966       .  S
O1133     Zr1136   2.399       .  S
O1133     Zr1153   2.382       .  S
O1133      H1170   0.963       .  S
O1134     Zr1137   2.390       .  S
O1134     Zr1153   2.384       .  S
Zr1135     O1160   2.440   1_556  S
Zr1135     O1154   2.460   1_556  S
Zr1135     O1162   2.472       .  S
Zr1135     O1150   2.481   1_556  S
Zr1135     O1141   2.411       .  S
Zr1135     O1142   2.412       .  S
Zr1135     O1143   2.385       .  S
Zr1135     O1144   2.395       .  S
Zr1136     O1155   2.436       .  S
Zr1136     O1148   2.435       .  S
Zr1136     O1149   2.429       .  S
Zr1136     O1142   2.395       .  S
Zr1136     O1143   2.395       .  S
Zr1137     O1139   2.435       .  S
Zr1137     O1161   2.437       .  S
Zr1137     O1163   2.433       .  S
Zr1137     O1141   2.395       .  S
Zr1137     O1144   2.397       .  S
Zr1138     O1164   2.435       .  S
Zr1138     O1165   2.435       .  S
Zr1138     O1140   2.436       .  S
Zr1138     O1141   2.388       .  S
Zr1138     O1142   2.379       .  S
O1139      H1176   0.990       .  S
O1140      H1171   0.990       .  S
O1140      H1185   0.990       .  S
O1142      H1168   0.964       .  S
O1143     Zr1153   2.384       .  S
O1144     Zr1153   2.383       .  S
O1144      H1169   0.966   1_556  S
C1145      C2844   1.472       .  S
C1146      C3544   1.487       .  S
C1147      C2773   1.477       .  S
O1148      H1184   0.990       .  S
O1149      C1151   1.286       .  A
O1150      C1151   1.293   1_554  A
C1151      C2793   1.499       .  S
O1152     Zr1153   2.439       .  S
O1152      H1181   0.990   1_556  S
Zr1153     O1156   2.437   1_556  S
Zr1153     O1157   2.439   1_556  S
Zr1153     O1158   2.394   1_556  S
O1154      C1159   1.288       .  A
O1155      H1172   0.990       .  S
O1155      H1187   0.990       .  S
O1156      H1173   0.990       .  S
O1157      H1177   0.990       .  S
O1157      H1186   0.990       .  S
O1158      C1159   1.277       .  A
C1159      C2864   1.473       .  S
O1160      H1179   0.990       .  S
O1160      H1183   0.990       .  S
O1161      H1175   0.990       .  S
O1161      H1182   0.990       .  S
O1162      C1166   1.291       .  A
O1163      C1166   1.285       .  A
O1164      H1174   0.990       .  S
O1165      H1178   0.990       .  S
C1166      C2753   1.492       .  S
Zr1189     O1190   2.437       .  S
Zr1189     O1191   2.451   1_554  S
Zr1189     O1192   2.471       .  S
Zr1189     O1195   2.459       .  S
Zr1189     O1197   2.385       .  S
Zr1189     O1198   2.388       .  S
Zr1189     O1199   2.412       .  S
Zr1189     O1200   2.406       .  S
O1190      H1246   0.989   1_554  S
O1190      H1254   0.990       .  S
O1191      C1211   1.286       .  A
O1192      C1213   1.290       .  A
O1193     Zr1203   2.438       .  S
O1193      C1212   1.287       .  A
O1194     Zr1202   2.441       .  S
O1194      C1213   1.287       .  A
O1195      C1212   1.288       .  A
O1196     Zr1204   2.405   1_556  S
O1196      C1211   1.279       .  A
O1197     Zr1202   2.398       .  S
O1197     Zr1204   2.383       .  S
O1198     Zr1203   2.398       .  S
O1198     Zr1204   2.372       .  S
O1198      H1233   0.966   1_554  S
O1199     Zr1202   2.401       .  S
O1199     Zr1219   2.384       .  S
O1199      H1236   0.964       .  S
O1200     Zr1203   2.392       .  S
O1200     Zr1219   2.389       .  S
Zr1201     O1226   2.442       .  S
Zr1201     O1220   2.462       .  S
Zr1201     O1228   2.456       .  S
Zr1201     O1216   2.474       .  S
Zr1201     O1207   2.409       .  S
Zr1201     O1208   2.413       .  S
Zr1201     O1209   2.383       .  S
Zr1201     O1210   2.393       .  S
Zr1202     O1221   2.434       .  S
Zr1202     O1214   2.435       .  S
Zr1202     O1215   2.435       .  S
Zr1202     O1208   2.404       .  S
Zr1202     O1209   2.398       .  S
Zr1203     O1205   2.436       .  S
Zr1203     O1227   2.437       .  S
Zr1203     O1229   2.442       .  S
Zr1203     O1207   2.389       .  S
Zr1203     O1210   2.398       .  S
Zr1204     O1230   2.436   1_554  S
Zr1204     O1231   2.436       .  S
Zr1204     O1206   2.435   1_554  S
Zr1204     O1207   2.385       .  S
Zr1204     O1208   2.379       .  S
O1205      H1242   0.990       .  S
O1206      H1237   0.990       .  S
O1206      H1251   0.989       .  S
O1208      H1234   0.963       .  S
O1209     Zr1219   2.387       .  S
O1210     Zr1219   2.380       .  S
O1210      H1235   0.966       .  S
C1211      C2704   1.475       .  S
C1212      C2673   1.500       .  S
C1213      C2804   1.506       .  S
O1214      H1250   0.990       .  S
O1215      C1217   1.285       .  A
O1216      C1217   1.290       .  A
C1217      C2733   1.484       .  S
O1218     Zr1219   2.438       .  S
O1218      H1247   0.990       .  S
Zr1219     O1222   2.438       .  S
Zr1219     O1223   2.438       .  S
Zr1219     O1224   2.398       .  S
O1220      C1225   1.288       .  A
O1221      H1238   0.990       .  S
O1221      H1253   0.990       .  S
O1222      H1239   0.990       .  S
O1223      H1243   0.990       .  S
O1223      H1252   0.990       .  S
O1224      C1225   1.278       .  A
C1225      C2724   1.479       .  S
O1226      H1245   0.991       .  S
O1226      H1249   0.990       .  S
O1227      H1241   0.990       .  S
O1227      H1248   0.989       .  S
O1228      C1232   1.289       .  A
O1229      C1232   1.287       .  A
O1230      H1240   0.990       .  S
O1231      H1244   0.990       .  S
C1232      C3733   1.495       .  S
Zr1255     O1256   2.443       .  S
Zr1255     O1257   2.454       .  S
Zr1255     O1258   2.451       .  S
Zr1255     O1261   2.448       .  S
Zr1255     O1263   2.381       .  S
Zr1255     O1264   2.388       .  S
Zr1255     O1265   2.418       .  S
Zr1255     O1266   2.401       .  S
O1256      H1312   0.990       .  S
O1256      H1320   0.990       .  S
O1257      C1277   1.286       .  A
O1258      C1279   1.286       .  A
O1259     Zr1269   2.427       .  S
O1259      C1278   1.285       .  A
O1260     Zr1268   2.429       .  S
O1260      C1279   1.283       .  A
O1261      C1278   1.287       .  A
O1262     Zr1270   2.403       .  S
O1262      C1277   1.277       .  A
O1263     Zr1268   2.394       .  S
O1263     Zr1270   2.383       .  S
O1264     Zr1269   2.397       .  S
O1264     Zr1270   2.378       .  S
O1264      H1299   0.966       .  S
O1265     Zr1268   2.398       .  S
O1265     Zr1285   2.388       .  S
O1265      H1302   0.964       .  S
O1266     Zr1269   2.384       .  S
O1266     Zr1285   2.382       .  S
Zr1267     O1292   2.441       .  S
Zr1267     O1286   2.453       .  S
Zr1267     O1294   2.458       .  S
Zr1267     O1282   2.461       .  S
Zr1267     O1273   2.403       .  S
Zr1267     O1274   2.413       .  S
Zr1267     O1275   2.385       .  S
Zr1267     O1276   2.390       .  S
Zr1268     O1287   2.436       .  S
Zr1268     O1280   2.435       .  S
Zr1268     O1281   2.420       .  S
Zr1268     O1274   2.402       .  S
Zr1268     O1275   2.397       .  S
Zr1269     O1271   2.436       .  S
Zr1269     O1293   2.435       .  S
Zr1269     O1295   2.427       .  S
Zr1269     O1273   2.389       .  S
Zr1269     O1276   2.395       .  S
Zr1270     O1296   2.437       .  S
Zr1270     O1297   2.434       .  S
Zr1270     O1272   2.437       .  S
Zr1270     O1273   2.384       .  S
Zr1270     O1274   2.387       .  S
O1271      H1308   0.990       .  S
O1272      H1303   0.990       .  S
O1272      H1317   0.990       .  S
O1274      H1300   0.965       .  S
O1275     Zr1285   2.385       .  S
O1276     Zr1285   2.378       .  S
O1276      H1301   0.966       .  S
C1277      C2693   1.476       .  S
C1278      C3684   1.481       .  S
C1279      C2653   1.475       .  S
O1280      H1316   0.990       .  S
O1281      C1283   1.280       .  A
O1282      C1283   1.288       .  A
C1283      C2904   1.496       .  S
O1284     Zr1285   2.439       .  S
O1284      H1313   0.990       .  S
Zr1285     O1288   2.438       .  S
Zr1285     O1289   2.439       .  S
Zr1285     O1290   2.399       .  S
O1286      C1291   1.286       .  A
O1287      H1304   0.990       .  S
O1287      H1319   0.990       .  S
O1288      H1305   0.990       .  S
O1289      H1309   0.990       .  S
O1289      H1318   0.990       .  S
O1290      C1291   1.278       .  A
C1291      C2713   1.478       .  S
O1292      H1311   0.991       .  S
O1292      H1315   0.990       .  S
O1293      H1307   0.990       .  S
O1293      H1314   0.990       .  S
O1294      C1298   1.289       .  A
O1295      C1298   1.285       .  A
O1296      H1306   0.990       .  S
O1297      H1310   0.990       .  S
C1298      C2633   1.496       .  S
Zr1321     O1322   2.441       .  S
Zr1321     O1323   2.437       .  S
Zr1321     O1324   2.452       .  S
Zr1321     O1327   2.443       .  S
Zr1321     O1329   2.386       .  S
Zr1321     O1330   2.382       .  S
Zr1321     O1331   2.405       .  S
Zr1321     O1332   2.403       .  S
O1322      H1378   0.991       .  S
O1322      H1386   0.990       .  S
O1323      C1343   1.284       .  A
O1324      C1345   1.287       .  A
O1325     Zr1335   2.420       .  S
O1325      C1344   1.284       .  A
O1326     Zr1334   2.433       .  S
O1326      C1345   1.284       .  A
O1327      C1344   1.286       .  A
O1328     Zr1336   2.403       .  S
O1328      C1343   1.279       .  A
O1329     Zr1334   2.395       .  S
O1329     Zr1336   2.380       .  S
O1330     Zr1335   2.385       .  S
O1330     Zr1336   2.372       .  S
O1330      H1365   0.966       .  S
O1331     Zr1334   2.399       .  S
O1331     Zr1351   2.385       .  S
O1331      H1368   0.965       .  S
O1332     Zr1335   2.386       .  S
O1332     Zr1351   2.390       .  S
Zr1333     O1358   2.442       .  S
Zr1333     O1352   2.457       .  S
Zr1333     O1360   2.449       .  S
Zr1333     O1348   2.449       .  S
Zr1333     O1339   2.402       .  S
Zr1333     O1340   2.416       .  S
Zr1333     O1341   2.380       .  S
Zr1333     O1342   2.386       .  S
Zr1334     O1353   2.434       .  S
Zr1334     O1346   2.435       .  S
Zr1334     O1347   2.430       .  S
Zr1334     O1340   2.404       .  S
Zr1334     O1341   2.398       .  S
Zr1335     O1337   2.435       .  S
Zr1335     O1359   2.440       .  S
Zr1335     O1361   2.411       .  S
Zr1335     O1339   2.387       .  S
Zr1335     O1342   2.393       .  S
Zr1336     O1362   2.436       .  S
Zr1336     O1363   2.435       .  S
Zr1336     O1338   2.437       .  S
Zr1336     O1339   2.382       .  S
Zr1336     O1340   2.392       .  S
O1337      H1374   0.990       .  S
O1338      H1369   0.990       .  S
O1338      H1383   0.990       .  S
O1340      H1366   0.965       .  S
O1341     Zr1351   2.382       .  S
O1342     Zr1351   2.381       .  S
O1342      H1367   0.966       .  S
C1343      C2584   1.475       .  S
C1344      C3924   1.486       .  S
C1345      C2744   1.490       .  S
O1346      H1382   0.990       .  S
O1347      C1349   1.283       .  A
O1348      C1349   1.287       .  A
C1349      C2624   1.491       .  S
O1350     Zr1351   2.439       .  S
O1350      H1379   0.990       .  S
Zr1351     O1354   2.437       .  S
Zr1351     O1355   2.439       .  S
Zr1351     O1356   2.402       .  S
O1352      C1357   1.286       .  A
O1353      H1370   0.990       .  S
O1353      H1385   0.990       .  S
O1354      H1371   0.990       .  S
O1355      H1375   0.990       .  S
O1355      H1384   0.989       .  S
O1356      C1357   1.277       .  A
C1357      C2604   1.470       .  S
O1358      H1377   0.990       .  S
O1358      H1381   0.991       .  S
O1359      H1373   0.990       .  S
O1359      H1380   0.990       .  S
O1360      C1364   1.287       .  A
O1361      C1364   1.281       .  A
O1362      H1372   0.990       .  S
O1363      H1376   0.990       .  S
C1364      C2564   1.472       .  S
Zr1387     O1388   2.442       .  S
Zr1387     O1389   2.465       .  S
Zr1387     O1390   2.455       .  S
Zr1387     O1393   2.455       .  S
Zr1387     O1395   2.381       .  S
Zr1387     O1396   2.389       .  S
Zr1387     O1397   2.419       .  S
Zr1387     O1398   2.409       .  S
O1388      H1444   0.990       .  S
O1388      H1452   0.990       .  S
O1389      C1409   1.288       .  A
O1390      C1411   1.287       .  A
O1391     Zr1401   2.441       .  S
O1391      C1410   1.287       .  A
O1392     Zr1400   2.428       .  S
O1392      C1411   1.283       .  A
O1393      C1410   1.288       .  A
O1394     Zr1402   2.395       .  S
O1394      C1409   1.274       .  A
O1395     Zr1400   2.398       .  S
O1395     Zr1402   2.385       .  S
O1396     Zr1401   2.400       .  S
O1396     Zr1402   2.380       .  S
O1396      H1431   0.966       .  S
O1397     Zr1400   2.398       .  S
O1397     Zr1417   2.383       .  S
O1397      H1434   0.964       .  S
O1398     Zr1401   2.386       .  S
O1398     Zr1417   2.392       .  S
Zr1399     O1424   2.440       .  S
Zr1399     O1418   2.451       .  S
Zr1399     O1426   2.440       .  S
Zr1399     O1414   2.480       .  S
Zr1399     O1405   2.404       .  S
Zr1399     O1406   2.407       .  S
Zr1399     O1407   2.383       .  S
Zr1399     O1408   2.394       .  S
Zr1400     O1419   2.436       .  S
Zr1400     O1412   2.434       .  S
Zr1400     O1413   2.419       .  S
Zr1400     O1406   2.402       .  S
Zr1400     O1407   2.398       .  S
Zr1401     O1403   2.435       .  S
Zr1401     O1425   2.437       .  S
Zr1401     O1427   2.433       .  S
Zr1401     O1405   2.390       .  S
Zr1401     O1408   2.397       .  S
Zr1402     O1428   2.436       .  S
Zr1402     O1429   2.436       .  S
Zr1402     O1404   2.439       .  S
Zr1402     O1405   2.380       .  S
Zr1402     O1406   2.382       .  S
O1403      H1440   0.990       .  S
O1404      H1435   0.989       .  S
O1404      H1449   0.990       .  S
O1406      H1432   0.964       .  S
O1407     Zr1417   2.385       .  S
O1408     Zr1417   2.375       .  S
O1408      H1433   0.966       .  S
C1409      C2593   1.498       .  S
C1410      C3844   1.494       .  S
C1411      C2664   1.476       .  S
O1412      H1448   0.990       .  S
O1413      C1415   1.283       .  A
O1414      C1415   1.291       .  A
C1415      C2533   1.497       .  S
O1416     Zr1417   2.440       .  S
O1416      H1445   0.990       .  S
Zr1417     O1420   2.437       .  S
Zr1417     O1421   2.441       .  S
Zr1417     O1422   2.403       .  S
O1418      C1423   1.285       .  A
O1419      H1436   0.990       .  S
O1419      H1451   0.990       .  S
O1420      H1437   0.990       .  S
O1421      H1441   0.990       .  S
O1421      H1450   0.990       .  S
O1422      C1423   1.279       .  A
C1423      C2573   1.487       .  S
O1424      H1443   0.990       .  S
O1424      H1447   0.989       .  S
O1425      H1439   0.990       .  S
O1425      H1446   0.990       .  S
O1426      C1430   1.286       .  A
O1427      C1430   1.285       .  A
O1428      H1438   0.990       .  S
O1429      H1442   0.990       .  S
C1430      C2524   1.479       .  S
Zr1453     O1454   2.442       .  S
Zr1453     O1455   2.446       .  S
Zr1453     O1456   2.462       .  S
Zr1453     O1459   2.472       .  S
Zr1453     O1461   2.390       .  S
Zr1453     O1462   2.391       .  S
Zr1453     O1463   2.416       .  S
Zr1453     O1464   2.397       .  S
O1454      H1510   0.990       .  S
O1454      H1518   0.990       .  S
O1455      C1475   1.284       .  A
O1456      C1477   1.288       .  A
O1457     Zr1467   2.424       .  S
O1457      C1476   1.283       .  A
O1458     Zr1466   2.419       .  S
O1458      C1477   1.282       .  A
O1459      C1476   1.292       .  A
O1460     Zr1468   2.408       .  S
O1460      C1475   1.279       .  A
O1461     Zr1466   2.401       .  S
O1461     Zr1468   2.380       .  S
O1462     Zr1467   2.394       .  S
O1462     Zr1468   2.380       .  S
O1462      H1497   0.966       .  S
O1463     Zr1466   2.407       .  S
O1463     Zr1483   2.383       .  S
O1463      H1500   0.965       .  S
O1464     Zr1467   2.387       .  S
O1464     Zr1483   2.382       .  S
Zr1465     O1490   2.442       .  S
Zr1465     O1484   2.449       .  S
Zr1465     O1492   2.449       .  S
Zr1465     O1480   2.467       .  S
Zr1465     O1471   2.408       .  S
Zr1465     O1472   2.410       .  S
Zr1465     O1473   2.381       .  S
Zr1465     O1474   2.388       .  S
Zr1466     O1485   2.434       .  S
Zr1466     O1478   2.435       .  S
Zr1466     O1479   2.434       .  S
Zr1466     O1472   2.397       .  S
Zr1466     O1473   2.393       .  S
Zr1467     O1469   2.433       .  S
Zr1467     O1491   2.435       .  S
Zr1467     O1493   2.424       .  S
Zr1467     O1471   2.389       .  S
Zr1467     O1474   2.392       .  S
Zr1468     O1494   2.435       .  S
Zr1468     O1495   2.436       .  S
Zr1468     O1470   2.438       .  S
Zr1468     O1471   2.387       .  S
Zr1468     O1472   2.387       .  S
O1469      H1506   0.990       .  S
O1470      H1501   0.990       .  S
O1470      H1515   0.990       .  S
O1472      H1498   0.965       .  S
O1473     Zr1483   2.385       .  S
O1474     Zr1483   2.381       .  S
O1474      H1499   0.966       .  S
C1475      C2493   1.475       .  S
C1476      C2453   1.494       .  S
C1477      C2613   1.470       .  S
O1478      H1514   0.990       .  S
O1479      C1481   1.284       .  A
O1480      C1481   1.289       .  A
C1481      C2884   1.490       .  S
O1482     Zr1483   2.442       .  S
O1482      H1511   0.990       .  S
Zr1483     O1486   2.438       .  S
Zr1483     O1487   2.438       .  S
Zr1483     O1488   2.401       .  S
O1484      C1489   1.286       .  A
O1485      H1502   0.990       .  S
O1485      H1517   0.989       .  S
O1486      H1503   0.990       .  S
O1487      H1507   0.989       .  S
O1487      H1516   0.990       .  S
O1488      C1489   1.278       .  A
C1489      C2473   1.476       .  S
O1490      H1509   0.990       .  S
O1490      H1513   0.991       .  S
O1491      H1505   0.989       .  S
O1491      H1512   0.990       .  S
O1492      C1496   1.288       .  A
O1493      C1496   1.283       .  A
O1494      H1504   0.990       .  S
O1495      H1508   0.990       .  S
C1496      C3464   1.484       .  S
Zr1519     O1520   2.442       .  S
Zr1519     O1521   2.449       .  S
Zr1519     O1522   2.456       .  S
Zr1519     O1525   2.443       .  S
Zr1519     O1527   2.383       .  S
Zr1519     O1528   2.385       .  S
Zr1519     O1529   2.412       .  S
Zr1519     O1530   2.405       .  S
O1520      H1576   0.990       .  S
O1520      H1584   0.990       .  S
O1521      C1541   1.286       .  A
O1522      C1543   1.287       .  A
O1523     Zr1533   2.436       .  S
O1523      C1542   1.285       .  A
O1524     Zr1532   2.441       .  S
O1524      C1543   1.285       .  A
O1525      C1542   1.286       .  A
O1526     Zr1534   2.402       .  S
O1526      C1541   1.277       .  A
O1527     Zr1532   2.397       .  S
O1527     Zr1534   2.386       .  S
O1528     Zr1533   2.392       .  S
O1528     Zr1534   2.375       .  S
O1528      H1563   0.966       .  S
O1529     Zr1532   2.399       .  S
O1529     Zr1549   2.386       .  S
O1529      H1566   0.965       .  S
O1530     Zr1533   2.390       .  S
O1530     Zr1549   2.395       .  S
Zr1531     O1556   2.439       .  S
Zr1531     O1550   2.449       .  S
Zr1531     O1558   2.460       .  S
Zr1531     O1546   2.480       .  S
Zr1531     O1537   2.405       .  S
Zr1531     O1538   2.414       .  S
Zr1531     O1539   2.386       .  S
Zr1531     O1540   2.390       .  S
Zr1532     O1551   2.436       .  S
Zr1532     O1544   2.436       .  S
Zr1532     O1545   2.419       .  S
Zr1532     O1538   2.405       .  S
Zr1532     O1539   2.401       .  S
Zr1533     O1535   2.435       .  S
Zr1533     O1557   2.438       .  S
Zr1533     O1559   2.427       .  S
Zr1533     O1537   2.390       .  S
Zr1533     O1540   2.395       .  S
Zr1534     O1560   2.435       .  S
Zr1534     O1561   2.435       .  S
Zr1534     O1536   2.436       .  S
Zr1534     O1537   2.386       .  S
Zr1534     O1538   2.381       .  S
O1535      H1572   0.990       .  S
O1536      H1567   0.990       .  S
O1536      H1581   0.990       .  S
O1538      H1564   0.964       .  S
O1539     Zr1549   2.382       .  S
O1540     Zr1549   2.381       .  S
O1540      H1565   0.966       .  S
C1541      C2504   1.474       .  S
C1542      C3424   1.485       .  S
C1543      C2784   1.491       .  S
O1544      H1580   0.990       .  S
O1545      C1547   1.284       .  A
O1546      C1547   1.291       .  A
C1547      C2544   1.498       .  S
O1548     Zr1549   2.439       .  S
O1548      H1577   0.990       .  S
Zr1549     O1552   2.438       .  S
Zr1549     O1553   2.437       .  S
Zr1549     O1554   2.408       .  S
O1550      C1555   1.286       .  A
O1551      H1568   0.990       .  S
O1551      H1583   0.990       .  S
O1552      H1569   0.990       .  S
O1553      H1573   0.990       .  S
O1553      H1582   0.990       .  S
O1554      C1555   1.278       .  A
C1555      C2484   1.482       .  S
O1556      H1575   0.990       .  S
O1556      H1579   0.989       .  S
O1557      H1571   0.990       .  S
O1557      H1578   0.989       .  S
O1558      C1562   1.290       .  A
O1559      C1562   1.283       .  A
O1560      H1570   0.990       .  S
O1561      H1574   0.990       .  S
C1562      C2433   1.502       .  S
Zr1585     O1586   2.440       .  S
Zr1585     O1587   2.452       .  S
Zr1585     O1588   2.467       .  S
Zr1585     O1591   2.441       .  S
Zr1585     O1593   2.381       .  S
Zr1585     O1594   2.391       .  S
Zr1585     O1595   2.411       .  S
Zr1585     O1596   2.403       .  S
O1586      H1642   0.990       .  S
O1586      H1650   0.990       .  S
O1587      C1607   1.286       .  A
O1588      C1609   1.289       .  A
O1589     Zr1599   2.438       .  S
O1589      C1608   1.286       .  A
O1590     Zr1598   2.414       .  S
O1590      C1609   1.282       .  A
O1591      C1608   1.285       .  A
O1592     Zr1600   2.416       .  S
O1592      C1607   1.280       .  A
O1593     Zr1598   2.404       .  S
O1593     Zr1600   2.383       .  S
O1594     Zr1599   2.396       .  S
O1594     Zr1600   2.377       .  S
O1594      H1629   0.966       .  S
O1595     Zr1598   2.399       .  S
O1595     Zr1615   2.383       .  S
O1595      H1632   0.964       .  S
O1596     Zr1599   2.387       .  S
O1596     Zr1615   2.381       .  S
Zr1597     O1622   2.442   1_554  S
Zr1597     O1616   2.459   1_554  S
Zr1597     O1624   2.462   1_554  S
Zr1597     O1612   2.480   1_554  S
Zr1597     O1603   2.410       .  S
Zr1597     O1604   2.418       .  S
Zr1597     O1605   2.382       .  S
Zr1597     O1606   2.393       .  S
Zr1598     O1617   2.437       .  S
Zr1598     O1610   2.434       .  S
Zr1598     O1611   2.429       .  S
Zr1598     O1604   2.398       .  S
Zr1598     O1605   2.392       .  S
Zr1599     O1601   2.436       .  S
Zr1599     O1623   2.439       .  S
Zr1599     O1625   2.436       .  S
Zr1599     O1603   2.387       .  S
Zr1599     O1606   2.395       .  S
Zr1600     O1626   2.434       .  S
Zr1600     O1627   2.435       .  S
Zr1600     O1602   2.437       .  S
Zr1600     O1603   2.391       .  S
Zr1600     O1604   2.390       .  S
O1601      H1638   0.990       .  S
O1602      H1633   0.990       .  S
O1602      H1647   0.990       .  S
O1604      H1630   0.964       .  S
O1605     Zr1615   2.388       .  S
O1606     Zr1615   2.386       .  S
O1606      H1631   0.966   1_554  S
C1607      C2384   1.480       .  S
C1608      C2404   1.482       .  S
C1609      C3293   1.488       .  S
O1610      H1646   0.990       .  S
O1611      C1613   1.283       .  A
O1612      C1613   1.292   1_556  A
C1613      C2684   1.494   1_554  S
O1614     Zr1615   2.441       .  S
O1614      H1643   0.990   1_554  S
Zr1615     O1618   2.437   1_554  S
Zr1615     O1619   2.440   1_554  S
Zr1615     O1620   2.394   1_554  S
O1616      C1621   1.287       .  A
O1617      H1634   0.990       .  S
O1617      H1649   0.990       .  S
O1618      H1635   0.990       .  S
O1619      H1639   0.990       .  S
O1619      H1648   0.990       .  S
O1620      C1621   1.276       .  A
C1621      C2364   1.474       .  S
O1622      H1641   0.990       .  S
O1622      H1645   0.991       .  S
O1623      H1637   0.990       .  S
O1623      H1644   0.990       .  S
O1624      C1628   1.291   1_556  A
O1625      C1628   1.285       .  A
O1626      H1636   0.990       .  S
O1627      H1640   0.990       .  S
C1628      C2424   1.503   1_554  S
Zr1651     O1652   2.440       .  S
Zr1651     O1653   2.438       .  S
Zr1651     O1654   2.466       .  S
Zr1651     O1657   2.443       .  S
Zr1651     O1659   2.382       .  S
Zr1651     O1660   2.390       .  S
Zr1651     O1661   2.402       .  S
Zr1651     O1662   2.404       .  S
O1652      H1708   0.990       .  S
O1652      H1716   0.990       .  S
O1653      C1673   1.284       .  A
O1654      C1675   1.289       .  A
O1655     Zr1665   2.428       .  S
O1655      C1674   1.283       .  A
O1656     Zr1664   2.424       .  S
O1656      C1675   1.284       .  A
O1657      C1674   1.288       .  A
O1658     Zr1666   2.413       .  S
O1658      C1673   1.281       .  A
O1659     Zr1664   2.396       .  S
O1659     Zr1666   2.381       .  S
O1660     Zr1665   2.395       .  S
O1660     Zr1666   2.368       .  S
O1660      H1695   0.966       .  S
O1661     Zr1664   2.397       .  S
O1661     Zr1681   2.386       .  S
O1661      H1698   0.965       .  S
O1662     Zr1665   2.396       .  S
O1662     Zr1681   2.386       .  S
Zr1663     O1688   2.442       .  S
Zr1663     O1682   2.457       .  S
Zr1663     O1690   2.449       .  S
Zr1663     O1678   2.463       .  S
Zr1663     O1669   2.406       .  S
Zr1663     O1670   2.416       .  S
Zr1663     O1671   2.383       .  S
Zr1663     O1672   2.387       .  S
Zr1664     O1683   2.436       .  S
Zr1664     O1676   2.436       .  S
Zr1664     O1677   2.419       .  S
Zr1664     O1670   2.402       .  S
Zr1664     O1671   2.396       .  S
Zr1665     O1667   2.435       .  S
Zr1665     O1689   2.438       .  S
Zr1665     O1691   2.439       .  S
Zr1665     O1669   2.388       .  S
Zr1665     O1672   2.391       .  S
Zr1666     O1692   2.436       .  S
Zr1666     O1693   2.435       .  S
Zr1666     O1668   2.436       .  S
Zr1666     O1669   2.391       .  S
Zr1666     O1670   2.390       .  S
O1667      H1704   0.990       .  S
O1668      H1699   0.990       .  S
O1668      H1713   0.990       .  S
O1670      H1696   0.964       .  S
O1671     Zr1681   2.385       .  S
O1672     Zr1681   2.383       .  S
O1672      H1697   0.966       .  S
C1673      C2353   1.486       .  S
C1674      C2313   1.492       .  S
C1675      C3244   1.494       .  S
O1676      H1712   0.990       .  S
O1677      C1679   1.282       .  A
O1678      C1679   1.289       .  A
C1679      C2644   1.486       .  S
O1680     Zr1681   2.439       .  S
O1680      H1709   0.990       .  S
Zr1681     O1684   2.439       .  S
Zr1681     O1685   2.438       .  S
Zr1681     O1686   2.399       .  S
O1682      C1687   1.287       .  A
O1683      H1700   0.990       .  S
O1683      H1715   0.990       .  S
O1684      H1701   0.990       .  S
O1685      H1705   0.990       .  S
O1685      H1714   0.990       .  S
O1686      C1687   1.278       .  A
C1687      C2373   1.480       .  S
O1688      H1707   0.990       .  S
O1688      H1711   0.990       .  S
O1689      H1703   0.990       .  S
O1689      H1710   0.990       .  S
O1690      C1694   1.288       .  A
O1691      C1694   1.285       .  A
O1692      H1702   0.990       .  S
O1693      H1706   0.990       .  S
C1694      C2333   1.496       .  S
Zr1717     O1718   2.442       .  S
Zr1717     O1719   2.446       .  S
Zr1717     O1720   2.463       .  S
Zr1717     O1723   2.446       .  S
Zr1717     O1725   2.381       .  S
Zr1717     O1726   2.387       .  S
Zr1717     O1727   2.412       .  S
Zr1717     O1728   2.407       .  S
O1718      H1774   0.991       .  S
O1718      H1782   0.990       .  S
O1719      C1739   1.285       .  A
O1720      C1741   1.288       .  A
O1721     Zr1731   2.435       .  S
O1721      C1740   1.285       .  A
O1722     Zr1730   2.421       .  S
O1722      C1741   1.283       .  A
O1723      C1740   1.286       .  A
O1724     Zr1732   2.404       .  S
O1724      C1739   1.278       .  A
O1725     Zr1730   2.398       .  S
O1725     Zr1732   2.380       .  S
O1726     Zr1731   2.399       .  S
O1726     Zr1732   2.379       .  S
O1726      H1761   0.966       .  S
O1727     Zr1730   2.400       .  S
O1727     Zr1747   2.386       .  S
O1727      H1764   0.964       .  S
O1728     Zr1731   2.388       .  S
O1728     Zr1747   2.394       .  S
Zr1729     O1754   2.444       .  S
Zr1729     O1748   2.446       .  S
Zr1729     O1756   2.448       .  S
Zr1729     O1744   2.455       .  S
Zr1729     O1735   2.402       .  S
Zr1729     O1736   2.414       .  S
Zr1729     O1737   2.383       .  S
Zr1729     O1738   2.386       .  S
Zr1730     O1749   2.435       .  S
Zr1730     O1742   2.435       .  S
Zr1730     O1743   2.423       .  S
Zr1730     O1736   2.400       .  S
Zr1730     O1737   2.398       .  S
Zr1731     O1733   2.435       .  S
Zr1731     O1755   2.438       .  S
Zr1731     O1757   2.432       .  S
Zr1731     O1735   2.390       .  S
Zr1731     O1738   2.391       .  S
Zr1732     O1758   2.434       .  S
Zr1732     O1759   2.437       .  S
Zr1732     O1734   2.438       .  S
Zr1732     O1735   2.384       .  S
Zr1732     O1736   2.383       .  S
O1733      H1770   0.990       .  S
O1734      H1765   0.990       .  S
O1734      H1779   0.990       .  S
O1736      H1762   0.964       .  S
O1737     Zr1747   2.382       .  S
O1738     Zr1747   2.382       .  S
O1738      H1763   0.966       .  S
C1739      C2253   1.474       .  S
C1740      C2344   1.483       .  S
C1741      C2824   1.481       .  S
O1742      H1778   0.990       .  S
O1743      C1745   1.283       .  A
O1744      C1745   1.286       .  A
C1745      C2944   1.472       .  S
O1746     Zr1747   2.439       .  S
O1746      H1775   0.990       .  S
Zr1747     O1750   2.436       .  S
Zr1747     O1751   2.439       .  S
Zr1747     O1752   2.411       .  S
O1748      C1753   1.285       .  A
O1749      H1766   0.990       .  S
O1749      H1781   0.990       .  S
O1750      H1767   0.990       .  S
O1751      H1771   0.990       .  S
O1751      H1780   0.990       .  S
O1752      C1753   1.279       .  A
C1753      C2284   1.480       .  S
O1754      H1773   0.991       .  S
O1754      H1777   0.991       .  S
O1755      H1769   0.990       .  S
O1755      H1776   0.990       .  S
O1756      C1760   1.286       .  A
O1757      C1760   1.285       .  A
O1758      H1768   0.990       .  S
O1759      H1772   0.990       .  S
C1760      C2293   1.478       .  S
Zr1783     O1784   2.443       .  S
Zr1783     O1785   2.458       .  S
Zr1783     O1786   2.468       .  S
Zr1783     O1789   2.460       .  S
Zr1783     O1791   2.385       .  S
Zr1783     O1792   2.397       .  S
Zr1783     O1793   2.416       .  S
Zr1783     O1794   2.401       .  S
O1784      H1840   0.991       .  S
O1784      H1848   0.990       .  S
O1785      C1805   1.287       .  A
O1786      C1807   1.289       .  A
O1787     Zr1797   2.439       .  S
O1787      C1806   1.287       .  A
O1788     Zr1796   2.447       .  S
O1788      C1807   1.287       .  A
O1789      C1806   1.289       .  A
O1790     Zr1798   2.390       .  S
O1790      C1805   1.275       .  A
O1791     Zr1796   2.401       .  S
O1791     Zr1798   2.388       .  S
O1792     Zr1797   2.398       .  S
O1792     Zr1798   2.386       .  S
O1792      H1827   0.966       .  S
O1793     Zr1796   2.399       .  S
O1793     Zr1813   2.378       .  S
O1793      H1830   0.963       .  S
O1794     Zr1797   2.380       .  S
O1794     Zr1813   2.375       .  S
Zr1795     O1820   2.439   1_556  S
Zr1795     O1814   2.458   1_556  S
Zr1795     O1822   2.471       .  S
Zr1795     O1810   2.473       .  S
Zr1795     O1801   2.404       .  S
Zr1795     O1802   2.417       .  S
Zr1795     O1803   2.383       .  S
Zr1795     O1804   2.392       .  S
Zr1796     O1815   2.435       .  S
Zr1796     O1808   2.435       .  S
Zr1796     O1809   2.437       .  S
Zr1796     O1802   2.408       .  S
Zr1796     O1803   2.399       .  S
Zr1797     O1799   2.435       .  S
Zr1797     O1821   2.440       .  S
Zr1797     O1823   2.433       .  S
Zr1797     O1801   2.390       .  S
Zr1797     O1804   2.398       .  S
Zr1798     O1824   2.435       .  S
Zr1798     O1825   2.435       .  S
Zr1798     O1800   2.437       .  S
Zr1798     O1801   2.385       .  S
Zr1798     O1802   2.381       .  S
O1799      H1836   0.990       .  S
O1800      H1831   0.990       .  S
O1800      H1845   0.990       .  S
O1802      H1828   0.964       .  S
O1803     Zr1813   2.382       .  S
O1804     Zr1813   2.384       .  S
O1804      H1829   0.966       .  S
C1805      C2264   1.473       .  S
C1806      C2233   1.486       .  S
C1807      C2913   1.487       .  S
O1808      H1844   0.990       .  S
O1809      C1811   1.287       .  A
O1810      C1811   1.290       .  A
C1811      C2764   1.496       .  S
O1812     Zr1813   2.439       .  S
O1812      H1841   0.990       .  S
Zr1813     O1816   2.437       .  S
Zr1813     O1817   2.440   1_556  S
Zr1813     O1818   2.387   1_556  S
O1814      C1819   1.287       .  A
O1815      H1832   0.990       .  S
O1815      H1847   0.990       .  S
O1816      H1833   0.990   1_556  S
O1817      H1837   0.990       .  S
O1817      H1846   0.990   1_554  S
O1818      C1819   1.275       .  A
C1819      C2273   1.477       .  S
O1820      H1839   0.990   1_554  S
O1820      H1843   0.990       .  S
O1821      H1835   0.990       .  S
O1821      H1842   0.990       .  S
O1822      C1826   1.291       .  A
O1823      C1826   1.286       .  A
O1824      H1834   0.989       .  S
O1825      H1838   0.990       .  S
C1826      C2413   1.501       .  S
Zr1849     O1850   2.441       .  S
Zr1849     O1851   2.456       .  S
Zr1849     O1852   2.468       .  S
Zr1849     O1855   2.459       .  S
Zr1849     O1857   2.384       .  S
Zr1849     O1858   2.389       .  S
Zr1849     O1859   2.415       .  S
Zr1849     O1860   2.404       .  S
O1850      H1906   0.990       .  S
O1850      H1914   0.990       .  S
O1851      C1871   1.287       .  A
O1852      C1873   1.290       .  A
O1853     Zr1863   2.424       .  S
O1853      C1872   1.282       .  A
O1854     Zr1862   2.443       .  S
O1854      C1873   1.286       .  A
O1855      C1872   1.290       .  A
O1856     Zr1864   2.398       .  S
O1856      C1871   1.277       .  A
O1857     Zr1862   2.401       .  S
O1857     Zr1864   2.385       .  S
O1858     Zr1863   2.397       .  S
O1858     Zr1864   2.380       .  S
O1858      H1893   0.966       .  S
O1859     Zr1862   2.403       .  S
O1859     Zr1879   2.379       .  S
O1859      H1896   0.964       .  S
O1860     Zr1863   2.387       .  S
O1860     Zr1879   2.388       .  S
Zr1861     O1886   2.441       .  S
Zr1861     O1880   2.462       .  S
Zr1861     O1888   2.463       .  S
Zr1861     O1876   2.453       .  S
Zr1861     O1867   2.398       .  S
Zr1861     O1868   2.419       .  S
Zr1861     O1869   2.386       .  S
Zr1861     O1870   2.388       .  S
Zr1862     O1881   2.436       .  S
Zr1862     O1874   2.435       .  S
Zr1862     O1875   2.440       .  S
Zr1862     O1868   2.405       .  S
Zr1862     O1869   2.400       .  S
Zr1863     O1865   2.435       .  S
Zr1863     O1887   2.438       .  S
Zr1863     O1889   2.420       .  S
Zr1863     O1867   2.384       .  S
Zr1863     O1870   2.394       .  S
Zr1864     O1890   2.435       .  S
Zr1864     O1891   2.435       .  S
Zr1864     O1866   2.437       .  S
Zr1864     O1867   2.382       .  S
Zr1864     O1868   2.383       .  S
O1865      H1902   0.990       .  S
O1866      H1897   0.990       .  S
O1866      H1911   0.990       .  S
O1868      H1894   0.964       .  S
O1869     Zr1879   2.383       .  S
O1870     Zr1879   2.383       .  S
O1870      H1895   0.966       .  S
C1871      C2193   1.476       .  S
C1872      C2213   1.499       .  S
C1873      C2464   1.491       .  S
O1874      H1910   0.990       .  S
O1875      C1877   1.286       .  A
O1876      C1877   1.287       .  A
C1877      C3044   1.483       .  S
O1878     Zr1879   2.440       .  S
O1878      H1907   0.990       .  S
Zr1879     O1882   2.438       .  S
Zr1879     O1883   2.439       .  S
Zr1879     O1884   2.393       .  S
O1880      C1885   1.287       .  A
O1881      H1898   0.990       .  S
O1881      H1913   0.990       .  S
O1882      H1899   0.990       .  S
O1883      H1903   0.990       .  S
O1883      H1912   0.990       .  S
O1884      C1885   1.277       .  A
C1885      C2184   1.483       .  S
O1886      H1905   0.991       .  S
O1886      H1909   0.990       .  S
O1887      H1901   0.990       .  S
O1887      H1908   0.990       .  S
O1888      C1892   1.289       .  A
O1889      C1892   1.283       .  A
O1890      H1900   0.990       .  S
O1891      H1904   0.990       .  S
C1892      C2304   1.485       .  S
Zr1915     O1916   2.441       .  S
Zr1915     O1917   2.446       .  S
Zr1915     O1918   2.464       .  S
Zr1915     O1921   2.443       .  S
Zr1915     O1923   2.380       .  S
Zr1915     O1924   2.392       .  S
Zr1915     O1925   2.409       .  S
Zr1915     O1926   2.403       .  S
O1916      H1972   0.991       .  S
O1916      H1980   0.990       .  S
O1917      C1937   1.284       .  A
O1918      C1939   1.288       .  A
O1919     Zr1929   2.429       .  S
O1919      C1938   1.285       .  A
O1920     Zr1928   2.434       .  S
O1920      C1939   1.283       .  A
O1921      C1938   1.286       .  A
O1922     Zr1930   2.404       .  S
O1922      C1937   1.278       .  A
O1923     Zr1928   2.396       .  S
O1923     Zr1930   2.385       .  S
O1924     Zr1929   2.394       .  S
O1924     Zr1930   2.375       .  S
O1924      H1959   0.966       .  S
O1925     Zr1928   2.396       .  S
O1925     Zr1945   2.388       .  S
O1925      H1962   0.964       .  S
O1926     Zr1929   2.391       .  S
O1926     Zr1945   2.384       .  S
Zr1927     O1952   2.443       .  S
Zr1927     O1946   2.445       .  S
Zr1927     O1954   2.449       .  S
Zr1927     O1942   2.452       .  S
Zr1927     O1933   2.406       .  S
Zr1927     O1934   2.413       .  S
Zr1927     O1935   2.384       .  S
Zr1927     O1936   2.386       .  S
Zr1928     O1947   2.435       .  S
Zr1928     O1940   2.435       .  S
Zr1928     O1941   2.420       .  S
Zr1928     O1934   2.400       .  S
Zr1928     O1935   2.398       .  S
Zr1929     O1931   2.435       .  S
Zr1929     O1953   2.437       .  S
Zr1929     O1955   2.430       .  S
Zr1929     O1933   2.392       .  S
Zr1929     O1936   2.394       .  S
Zr1930     O1956   2.435       .  S
Zr1930     O1957   2.436       .  S
Zr1930     O1932   2.437       .  S
Zr1930     O1933   2.391       .  S
Zr1930     O1934   2.382       .  S
O1931      H1968   0.990       .  S
O1932      H1963   0.990       .  S
O1932      H1977   0.990       .  S
O1934      H1960   0.964       .  S
O1935     Zr1945   2.383       .  S
O1936     Zr1945   2.381       .  S
O1936      H1961   0.966       .  S
C1937      C2173   1.466       .  S
C1938      C2164   1.477       .  S
C1939      C2444   1.482       .  S
O1940      H1976   0.990       .  S
O1941      C1943   1.284       .  A
O1942      C1943   1.287       .  A
C1943      C3004   1.479       .  S
O1944     Zr1945   2.441       .  S
O1944      H1973   0.990       .  S
Zr1945     O1948   2.438       .  S
Zr1945     O1949   2.438       .  S
Zr1945     O1950   2.411       .  S
O1946      C1951   1.285       .  A
O1947      H1964   0.990       .  S
O1947      H1979   0.990       .  S
O1948      H1965   0.990       .  S
O1949      H1969   0.989       .  S
O1949      H1978   0.990       .  S
O1950      C1951   1.280       .  A
C1951      C2204   1.480       .  S
O1952      H1971   0.990       .  S
O1952      H1975   0.991       .  S
O1953      H1967   0.990       .  S
O1953      H1974   0.990       .  S
O1954      C1958   1.286       .  A
O1955      C1958   1.284       .  A
O1956      H1966   0.990       .  S
O1957      H1970   0.990       .  S
C1958      C2244   1.489       .  S
Zr1981     O1982   2.442       .  S
Zr1981     O1983   2.442       .  S
Zr1981     O1984   2.466       .  S
Zr1981     O1987   2.455       .  S
Zr1981     O1989   2.384       .  S
Zr1981     O1990   2.391       .  S
Zr1981     O1991   2.409       .  S
Zr1981     O1992   2.400       .  S
O1982      H2038   0.990       .  S
O1982      H2046   0.990       .  S
O1983      C2003   1.284       .  A
O1984      C2005   1.290       .  A
O1985     Zr1995   2.423       .  S
O1985      C2004   1.282       .  A
O1986     Zr1994   2.428       .  S
O1986      C2005   1.283       .  A
O1987      C2004   1.290       .  A
O1988     Zr1996   2.409       .  S
O1988      C2003   1.279       .  A
O1989     Zr1994   2.396       .  S
O1989     Zr1996   2.381       .  S
O1990     Zr1995   2.402       .  S
O1990     Zr1996   2.377       .  S
O1990      H2025   0.966       .  S
O1991     Zr1994   2.399       .  S
O1991     Zr2011   2.381       .  S
O1991      H2028   0.965       .  S
O1992     Zr1995   2.391       .  S
O1992     Zr2011   2.379       .  S
Zr1993     O2018   2.437       .  S
Zr1993     O2012   2.456       .  S
Zr1993     O2020   2.459       .  S
Zr1993     O2008   2.437       .  S
Zr1993     O1999   2.399       .  S
Zr1993     O2000   2.419       .  S
Zr1993     O2001   2.381       .  S
Zr1993     O2002   2.382       .  S
Zr1994     O2013   2.436       .  S
Zr1994     O2006   2.436       .  S
Zr1994     O2007   2.426       .  S
Zr1994     O2000   2.402       .  S
Zr1994     O2001   2.393       .  S
Zr1995     O1997   2.438       .  S
Zr1995     O2019   2.438       .  S
Zr1995     O2021   2.439       .  S
Zr1995     O1999   2.381       .  S
Zr1995     O2002   2.394       .  S
Zr1996     O2022   2.436       .  S
Zr1996     O2023   2.435       .  S
Zr1996     O1998   2.436       .  S
Zr1996     O1999   2.389       .  S
Zr1996     O2000   2.388       .  S
O1997      H2034   0.990       .  S
O1998      H2029   0.990       .  S
O1998      H2043   0.990       .  S
O2000      H2026   0.964       .  S
O2001     Zr2011   2.381       .  S
O2002     Zr2011   2.386       .  S
O2002      H2027   0.966       .  S
C2003      C2113   1.468       .  S
C2004      C2393   1.498       .  S
C2005      C3164   1.498       .  S
O2006      H2042   0.990       .  S
O2007      C2009   1.283       .  A
O2008      C2009   1.282       .  A
C2009      C2553   1.471       .  S
O2010     Zr2011   2.439       .  S
O2010      H2039   0.990       .  S
Zr2011     O2014   2.438       .  S
Zr2011     O2015   2.438       .  S
Zr2011     O2016   2.393       .  S
O2012      C2017   1.286       .  A
O2013      H2030   0.990       .  S
O2013      H2045   0.990       .  S
O2014      H2031   0.990       .  S
O2015      H2035   0.990       .  S
O2015      H2044   0.990       .  S
O2016      C2017   1.277       .  A
C2017      C2133   1.486       .  S
O2018      H2037   0.989       .  S
O2018      H2041   0.991       .  S
O2019      H2033   0.990       .  S
O2019      H2040   0.990       .  S
O2020      C2024   1.288       .  A
O2021      C2024   1.287       .  A
O2022      H2032   0.990       .  S
O2023      H2036   0.990       .  S
C2024      C2224   1.502       .  S
Zr2047     O2048   2.440       .  S
Zr2047     O2049   2.442       .  S
Zr2047     O2050   2.465       .  S
Zr2047     O2053   2.441       .  S
Zr2047     O2055   2.384       .  S
Zr2047     O2056   2.392       .  S
Zr2047     O2057   2.407       .  S
Zr2047     O2058   2.402       .  S
O2048      H2104   0.990       .  S
O2048      H2112   0.990       .  S
O2049      C2069   1.284       .  A
O2050      C2071   1.288       .  A
O2051     Zr2061   2.426       .  S
O2051      C2070   1.285       .  A
O2052     Zr2060   2.420       .  S
O2052      C2071   1.283       .  A
O2053      C2070   1.285       .  A
O2054     Zr2062   2.417       .  S
O2054      C2069   1.281       .  A
O2055     Zr2060   2.395       .  S
O2055     Zr2062   2.382       .  S
O2056     Zr2061   2.400       .  S
O2056     Zr2062   2.374       .  S
O2056      H2091   0.966       .  S
O2057     Zr2060   2.402       .  S
O2057     Zr2077   2.382       .  S
O2057      H2094   0.964       .  S
O2058     Zr2061   2.392       .  S
O2058     Zr2077   2.385       .  S
Zr2059     O2084   2.442       .  S
Zr2059     O2078   2.453       .  S
Zr2059     O2086   2.437       .  S
Zr2059     O2074   2.462       .  S
Zr2059     O2065   2.405       .  S
Zr2059     O2066   2.412       .  S
Zr2059     O2067   2.376       .  S
Zr2059     O2068   2.386       .  S
Zr2060     O2079   2.435       .  S
Zr2060     O2072   2.434       .  S
Zr2060     O2073   2.427       .  S
Zr2060     O2066   2.401       .  S
Zr2060     O2067   2.396       .  S
Zr2061     O2063   2.435       .  S
Zr2061     O2085   2.439       .  S
Zr2061     O2087   2.436       .  S
Zr2061     O2065   2.387       .  S
Zr2061     O2068   2.397       .  S
Zr2062     O2088   2.436       .  S
Zr2062     O2089   2.435       .  S
Zr2062     O2064   2.436       .  S
Zr2062     O2065   2.385       .  S
Zr2062     O2066   2.388       .  S
O2063      H2100   0.990       .  S
O2064      H2095   0.990       .  S
O2064      H2109   0.990       .  S
O2066      H2092   0.964       .  S
O2067     Zr2077   2.384       .  S
O2068     Zr2077   2.380       .  S
O2068      H2093   0.966       .  S
C2069      C2144   1.478       .  S
C2070      C2324   1.483       .  S
C2071      C3124   1.488       .  S
O2072      H2108   0.990       .  S
O2073      C2075   1.283       .  A
O2074      C2075   1.288       .  A
C2075      C2513   1.485       .  S
O2076     Zr2077   2.439       .  S
O2076      H2105   0.990       .  S
Zr2077     O2080   2.438       .  S
Zr2077     O2081   2.440       .  S
Zr2077     O2082   2.397       .  S
O2078      C2083   1.286       .  A
O2079      H2096   0.990       .  S
O2079      H2111   0.990       .  S
O2080      H2097   0.990       .  S
O2081      H2101   0.990       .  S
O2081      H2110   0.990       .  S
O2082      C2083   1.277       .  A
C2083      C2124   1.478       .  S
O2084      H2103   0.990       .  S
O2084      H2107   0.990       .  S
O2085      H2099   0.990       .  S
O2085      H2106   0.990       .  S
O2086      C2090   1.285       .  A
O2087      C2090   1.286       .  A
O2088      H2098   0.990       .  S
O2089      H2102   0.990       .  S
C2090      C2153   1.484       .  S
C2113      C2114   1.408       .  A
C2113      C2118   1.401       .  A
C2114      C2115   1.397   1_554  A
C2114     Br2130   1.920       .  S
C2115      C2116   1.402       .  A
C2115      H2119   1.084       .  S
C2116      C2120   1.477       .  S
C2116      C2117   1.409       .  A
C2117      C2118   1.400   1_556  A
C2117     Br2129   1.918       .  S
C2118      H2121   1.084       .  S
C2120      C2122   1.404       .  A
C2120      C2126   1.405       .  A
C2122      C2123   1.402       .  A
C2122      H2127   1.083       .  S
C2123      C2124   1.411       .  A
C2123     Br2131   1.920       .  S
C2124      C2125   1.406       .  A
C2125      C2126   1.395       .  A
C2125      H2128   1.084       .  S
C2126     Br2132   1.920       .  S
C2133      C2134   1.414       .  A
C2133      C2138   1.410       .  A
C2134      C2135   1.401       .  A
C2134     Br2150   1.917       .  S
C2135      C2136   1.402       .  A
C2135      H2139   1.084       .  S
C2136      C2140   1.475       .  S
C2136      C2137   1.402       .  A
C2137      C2138   1.395       .  A
C2137     Br2149   1.919       .  S
C2138      H2141   1.083       .  S
C2140      C2142   1.398       .  A
C2140      C2146   1.409       .  A
C2142      C2143   1.396       .  A
C2142      H2147   1.084       .  S
C2143      C2144   1.412       .  A
C2143     Br2151   1.919       .  S
C2144      C2145   1.405       .  A
C2145      C2146   1.403       .  A
C2145      H2148   1.084       .  S
C2146     Br2152   1.919       .  S
C2153      C2154   1.416       .  A
C2153      C2158   1.406       .  A
C2154      C2155   1.399       .  A
C2154     Br2170   1.920       .  S
C2155      C2156   1.401       .  A
C2155      H2159   1.084       .  S
C2156      C2160   1.482       .  S
C2156      C2157   1.408       .  A
C2157      C2158   1.401       .  A
C2157     Br2169   1.919       .  S
C2158      H2161   1.083       .  S
C2160      C2162   1.402       .  A
C2160      C2166   1.410       .  A
C2162      C2163   1.399       .  A
C2162      H2167   1.084       .  S
C2163      C2164   1.411       .  A
C2163     Br2171   1.919       .  S
C2164      C2165   1.404       .  A
C2165      C2166   1.402       .  A
C2165      H2168   1.083       .  S
C2166     Br2172   1.919       .  S
C2173      C2174   1.406       .  A
C2173      C2178   1.402       .  A
C2174      C2175   1.397       .  A
C2174     Br2190   1.919       .  S
C2175      C2176   1.403       .  A
C2175      H2179   1.084       .  S
C2176      C2180   1.480       .  S
C2176      C2177   1.411       .  A
C2177      C2178   1.401       .  A
C2177     Br2189   1.919       .  S
C2178      H2181   1.084       .  S
C2180      C2182   1.406       .  A
C2180      C2186   1.405       .  A
C2182      C2183   1.404       .  A
C2182      H2187   1.083       .  S
C2183      C2184   1.412       .  A
C2183     Br2191   1.918       .  S
C2184      C2185   1.408       .  A
C2185      C2186   1.395       .  A
C2185      H2188   1.084       .  S
C2186     Br2192   1.921       .  S
C2193      C2194   1.414       .  A
C2193      C2198   1.404       .  A
C2194      C2195   1.397       .  A
C2194     Br2210   1.920       .  S
C2195      C2196   1.398       .  A
C2195      H2199   1.084       .  S
C2196      C2200   1.473       .  S
C2196      C2197   1.408       .  A
C2197      C2198   1.400       .  A
C2197     Br2209   1.918       .  S
C2198      H2201   1.083       .  S
C2200      C2202   1.397       .  A
C2200      C2206   1.407       .  A
C2202      C2203   1.395   1_554  A
C2202      H2207   1.084       .  S
C2203      C2204   1.414       .  A
C2203     Br2211   1.918       .  S
C2204      C2205   1.406       .  A
C2205      C2206   1.401   1_556  A
C2205      H2208   1.083       .  S
C2206     Br2212   1.917       .  S
C2213      C2214   1.422       .  A
C2213      C2218   1.410       .  A
C2214      C2215   1.401       .  A
C2214     Br2230   1.922       .  S
C2215      C2216   1.401       .  A
C2215      H2219   1.084       .  S
C2216      C2220   1.490       .  S
C2216      C2217   1.408       .  A
C2217      C2218   1.402       .  A
C2217     Br2229   1.918       .  S
C2218      H2221   1.083       .  S
C2220      C2222   1.402       .  A
C2220      C2226   1.407       .  A
C2222      C2223   1.405       .  A
C2222      H2227   1.084       .  S
C2223      C2224   1.421       .  A
C2223     Br2231   1.913       .  S
C2224      C2225   1.411       .  A
C2225      C2226   1.401       .  A
C2225      H2228   1.083       .  S
C2226     Br2232   1.919       .  S
C2233      C2234   1.413       .  A
C2233      C2238   1.408       .  A
C2234      C2235   1.401       .  A
C2234     Br2250   1.917       .  S
C2235      C2236   1.403       .  A
C2235      H2239   1.084       .  S
C2236      C2240   1.486       .  S
C2236      C2237   1.410       .  A
C2237      C2238   1.401       .  A
C2237     Br2249   1.921       .  S
C2238      H2241   1.084       .  S
C2240      C2242   1.402       .  A
C2240      C2246   1.409       .  A
C2242      C2243   1.398       .  A
C2242      H2247   1.084       .  S
C2243      C2244   1.415       .  A
C2243     Br2251   1.919       .  S
C2244      C2245   1.409       .  A
C2245      C2246   1.402       .  A
C2245      H2248   1.083       .  S
C2246     Br2252   1.920       .  S
C2253      C2254   1.413       .  A
C2253      C2258   1.404       .  A
C2254      C2255   1.395       .  A
C2254     Br2270   1.920       .  S
C2255      C2256   1.398       .  A
C2255      H2259   1.084       .  S
C2256      C2260   1.472       .  S
C2256      C2257   1.407       .  A
C2257      C2258   1.400       .  A
C2257     Br2269   1.917       .  S
C2258      H2261   1.083       .  S
C2260      C2262   1.398       .  A
C2260      C2266   1.407       .  A
C2262      C2263   1.396       .  A
C2262      H2267   1.084       .  S
C2263      C2264   1.414       .  A
C2263     Br2271   1.921       .  S
C2264      C2265   1.403       .  A
C2265      C2266   1.400       .  A
C2265      H2268   1.083       .  S
C2266     Br2272   1.917       .  S
C2273      C2274   1.410       .  A
C2273      C2278   1.408       .  A
C2274      C2275   1.400       .  A
C2274     Br2290   1.915       .  S
C2275      C2276   1.402       .  A
C2275      H2279   1.083       .  S
C2276      C2280   1.473       .  S
C2276      C2277   1.404       .  A
C2277      C2278   1.396       .  A
C2277     Br2289   1.919       .  S
C2278      H2281   1.084       .  S
C2280      C2282   1.398       .  A
C2280      C2286   1.406       .  A
C2282      C2283   1.396       .  A
C2282      H2287   1.084       .  S
C2283      C2284   1.414       .  A
C2283     Br2291   1.918       .  S
C2284      C2285   1.407       .  A
C2285      C2286   1.400       .  A
C2285      H2288   1.084       .  S
C2286     Br2292   1.918       .  S
C2293      C2294   1.411       .  A
C2293      C2298   1.402       .  A
C2294      C2295   1.406       .  A
C2294     Br2310   1.919       .  S
C2295      C2296   1.407       .  A
C2295      H2299   1.083       .  S
C2296      C2300   1.487       .  S
C2296      C2297   1.409       .  A
C2297      C2298   1.396       .  A
C2297     Br2309   1.919       .  S
C2298      H2301   1.084       .  S
C2300      C2302   1.402       .  A
C2300      C2306   1.411       .  A
C2302      C2303   1.397       .  A
C2302      H2307   1.084       .  S
C2303      C2304   1.413       .  A
C2303     Br2311   1.921       .  S
C2304      C2305   1.407       .  A
C2305      C2306   1.406       .  A
C2305      H2308   1.083       .  S
C2306     Br2312   1.918       .  S
C2313      C2314   1.421       .  A
C2313      C2318   1.410       .  A
C2314      C2315   1.399       .  A
C2314     Br2330   1.922       .  S
C2315      C2316   1.399       .  A
C2315      H2319   1.084       .  S
C2316      C2320   1.477       .  S
C2316      C2317   1.403       .  A
C2317      C2318   1.400       .  A
C2317     Br2329   1.917       .  S
C2318      H2321   1.083       .  S
C2320      C2322   1.402       .  A
C2320      C2326   1.404       .  A
C2322      C2323   1.401       .  A
C2322      H2327   1.084       .  S
C2323      C2324   1.415       .  A
C2323     Br2331   1.920       .  S
C2324      C2325   1.407       .  A
C2325      C2326   1.397       .  A
C2325      H2328   1.084       .  S
C2326     Br2332   1.918       .  S
C2333      C2334   1.418       .  A
C2333      C2338   1.410       .  A
C2334      C2335   1.403       .  A
C2334     Br2350   1.920       .  S
C2335      C2336   1.401       .  A
C2335      H2339   1.084       .  S
C2336      C2340   1.486       .  S
C2336      C2337   1.406       .  A
C2337      C2338   1.404       .  A
C2337     Br2349   1.918       .  S
C2338      H2341   1.083       .  S
C2340      C2342   1.404       .  A
C2340      C2346   1.408       .  A
C2342      C2343   1.404       .  A
C2342      H2347   1.083       .  S
C2343      C2344   1.411       .  A
C2343     Br2351   1.920       .  S
C2344      C2345   1.405       .  A
C2345      C2346   1.402       .  A
C2345      H2348   1.084       .  S
C2346     Br2352   1.918       .  S
C2353      C2354   1.417       .  A
C2353      C2358   1.408       .  A
C2354      C2355   1.404       .  A
C2354     Br2370   1.922       .  S
C2355      C2356   1.403       .  A
C2355      H2359   1.083       .  S
C2356      C2360   1.475       .  S
C2356      C2357   1.403       .  A
C2357      C2358   1.393       .  A
C2357     Br2369   1.920       .  S
C2358      H2361   1.083       .  S
C2360      C2362   1.400       .  A
C2360      C2366   1.408       .  A
C2362      C2363   1.399       .  A
C2362      H2367   1.084       .  S
C2363      C2364   1.412       .  A
C2363     Br2371   1.920       .  S
C2364      C2365   1.402       .  A
C2365      C2366   1.399       .  A
C2365      H2368   1.084       .  S
C2366     Br2372   1.918       .  S
C2373      C2374   1.411       .  A
C2373      C2378   1.407       .  A
C2374      C2375   1.403       .  A
C2374     Br2390   1.919       .  S
C2375      C2376   1.404       .  A
C2375      H2379   1.083       .  S
C2376      C2380   1.478       .  S
C2376      C2377   1.405       .  A
C2377      C2378   1.397       .  A
C2377     Br2389   1.919       .  S
C2378      H2381   1.084       .  S
C2380      C2382   1.402       .  A
C2380      C2386   1.406       .  A
C2382      C2383   1.400       .  A
C2382      H2387   1.084       .  S
C2383      C2384   1.409       .  A
C2383     Br2391   1.916       .  S
C2384      C2385   1.407       .  A
C2385      C2386   1.401       .  A
C2385      H2388   1.084       .  S
C2386     Br2392   1.919       .  S
C2393      C2394   1.423       .  A
C2393      C2398   1.412       .  A
C2394      C2395   1.399       .  A
C2394     Br2410   1.924       .  S
C2395      C2396   1.397       .  A
C2395      H2399   1.084       .  S
C2396      C2400   1.480       .  S
C2396      C2397   1.405       .  A
C2397      C2398   1.402       .  A
C2397     Br2409   1.917       .  S
C2398      H2401   1.083       .  S
C2400      C2402   1.403       .  A
C2400      C2406   1.406       .  A
C2402      C2403   1.403       .  A
C2402      H2407   1.083       .  S
C2403      C2404   1.414       .  A
C2403     Br2411   1.920       .  S
C2404      C2405   1.405       .  A
C2405      C2406   1.398       .  A
C2405      H2408   1.084       .  S
C2406     Br2412   1.918       .  S
C2413      C2414   1.418       .  A
C2413      C2418   1.411       .  A
C2414      C2415   1.408   1_556  A
C2414     Br2430   1.914   1_556  S
C2415      C2416   1.404   1_554  A
C2415      H2419   1.083       .  S
C2416      C2420   1.491       .  S
C2416      C2417   1.407       .  A
C2417      C2418   1.401       .  A
C2417     Br2429   1.919       .  S
C2418      H2421   1.083       .  S
C2420      C2422   1.401       .  A
C2420      C2426   1.408       .  A
C2422      C2423   1.402   1_556  A
C2422      H2427   1.084       .  S
C2423      C2424   1.422   1_554  A
C2423     Br2431   1.922       .  S
C2424      C2425   1.412       .  A
C2425      C2426   1.407       .  A
C2425      H2428   1.083       .  S
C2426     Br2432   1.918       .  S
C2433      C2434   1.421       .  A
C2433      C2438   1.410       .  A
C2434      C2435   1.402       .  A
C2434     Br2450   1.923       .  S
C2435      C2436   1.402       .  A
C2435      H2439   1.083       .  S
C2436      C2440   1.495       .  S
C2436      C2437   1.411       .  A
C2437      C2438   1.405       .  A
C2437     Br2449   1.920       .  S
C2438      H2441   1.083       .  S
C2440      C2442   1.405       .  A
C2440      C2446   1.415       .  A
C2442      C2443   1.399       .  A
C2442      H2447   1.083       .  S
C2443      C2444   1.409       .  A
C2443     Br2451   1.919       .  S
C2444      C2445   1.405       .  A
C2445      C2446   1.408       .  A
C2445      H2448   1.083       .  S
C2446     Br2452   1.919       .  S
C2453      C2454   1.418       .  A
C2453      C2458   1.409       .  A
C2454      C2455   1.399       .  A
C2454     Br2470   1.920       .  S
C2455      C2456   1.399       .  A
C2455      H2459   1.084       .  S
C2456      C2460   1.488       .  S
C2456      C2457   1.409       .  A
C2457      C2458   1.408       .  A
C2457     Br2469   1.916       .  S
C2458      H2461   1.083       .  S
C2460      C2462   1.401       .  A
C2460      C2466   1.409       .  A
C2462      C2463   1.403       .  A
C2462      H2467   1.084       .  S
C2463      C2464   1.416       .  A
C2463     Br2471   1.919       .  S
C2464      C2465   1.407       .  A
C2465      C2466   1.405       .  A
C2465      H2468   1.083       .  S
C2466     Br2472   1.918       .  S
C2473      C2474   1.413       .  A
C2473      C2478   1.404       .  A
C2474      C2475   1.396       .  A
C2474     Br2490   1.920       .  S
C2475      C2476   1.399       .  A
C2475      H2479   1.084       .  S
C2476      C2480   1.474       .  S
C2476      C2477   1.407       .  A
C2477      C2478   1.399       .  A
C2477     Br2489   1.916       .  S
C2478      H2481   1.083       .  S
C2480      C2482   1.398       .  A
C2480      C2486   1.407       .  A
C2482      C2483   1.397       .  A
C2482      H2487   1.084       .  S
C2483      C2484   1.417       .  A
C2483     Br2491   1.920       .  S
C2484      C2485   1.406       .  A
C2485      C2486   1.399       .  A
C2485      H2488   1.083       .  S
C2486     Br2492   1.917       .  S
C2493      C2494   1.410       .  A
C2493      C2498   1.404       .  A
C2494      C2495   1.403       .  A
C2494     Br2510   1.919       .  S
C2495      C2496   1.405       .  A
C2495      H2499   1.083       .  S
C2496      C2500   1.476       .  S
C2496      C2497   1.405       .  A
C2497      C2498   1.395       .  A
C2497     Br2509   1.919       .  S
C2498      H2501   1.084       .  S
C2500      C2502   1.401       .  A
C2500      C2506   1.408       .  A
C2502      C2503   1.397   1_554  A
C2502      H2507   1.084       .  S
C2503      C2504   1.412       .  A
C2503     Br2511   1.919       .  S
C2504      C2505   1.403       .  A
C2505      C2506   1.399   1_556  A
C2505      H2508   1.084       .  S
C2506     Br2512   1.918       .  S
C2513      C2514   1.415       .  A
C2513      C2518   1.408       .  A
C2514      C2515   1.396       .  A
C2514     Br2530   1.920       .  S
C2515      C2516   1.398       .  A
C2515      H2519   1.084       .  S
C2516      C2520   1.478       .  S
C2516      C2517   1.407       .  A
C2517      C2518   1.404       .  A
C2517     Br2529   1.916       .  S
C2518      H2521   1.083       .  S
C2520      C2522   1.403       .  A
C2520      C2526   1.406       .  A
C2522      C2523   1.402       .  A
C2522      H2527   1.083       .  S
C2523      C2524   1.411       .  A
C2523     Br2531   1.919       .  S
C2524      C2525   1.405       .  A
C2525      C2526   1.398       .  A
C2525      H2528   1.084       .  S
C2526     Br2532   1.918       .  S
C2533      C2534   1.415       .  A
C2533      C2538   1.412       .  A
C2534      C2535   1.405       .  A
C2534     Br2550   1.913       .  S
C2535      C2536   1.404       .  A
C2535      H2539   1.084       .  S
C2536      C2540   1.485       .  S
C2536      C2537   1.404       .  A
C2537      C2538   1.398       .  A
C2537     Br2549   1.919       .  S
C2538      H2541   1.083       .  S
C2540      C2542   1.405       .  A
C2540      C2546   1.403       .  A
C2542      C2543   1.408       .  A
C2542      H2547   1.083       .  S
C2543      C2544   1.417       .  A
C2543     Br2551   1.916       .  S
C2544      C2545   1.412       .  A
C2545      C2546   1.395       .  A
C2545      H2548   1.083       .  S
C2546     Br2552   1.920       .  S
C2553      C2554   1.412       .  A
C2553      C2558   1.403       .  A
C2554      C2555   1.395       .  A
C2554     Br2570   1.921       .  S
C2555      C2556   1.399       .  A
C2555      H2559   1.084       .  S
C2556      C2560   1.471       .  S
C2556      C2557   1.407       .  A
C2557      C2558   1.399       .  A
C2557     Br2569   1.917       .  S
C2558      H2561   1.084       .  S
C2560      C2562   1.398       .  A
C2560      C2566   1.407       .  A
C2562      C2563   1.392       .  A
C2562      H2567   1.084       .  S
C2563      C2564   1.411       .  A
C2563     Br2571   1.920       .  S
C2564      C2565   1.405       .  A
C2565      C2566   1.403       .  A
C2565      H2568   1.083       .  S
C2566     Br2572   1.916       .  S
C2573      C2574   1.415       .  A
C2573      C2578   1.410       .  A
C2574      C2575   1.401       .  A
C2574     Br2590   1.916       .  S
C2575      C2576   1.403       .  A
C2575      H2579   1.084       .  S
C2576      C2580   1.476       .  S
C2576      C2577   1.402       .  A
C2577      C2578   1.394       .  A
C2577     Br2589   1.920       .  S
C2578      H2581   1.083       .  S
C2580      C2582   1.405       .  A
C2580      C2586   1.405       .  A
C2582      C2583   1.400   1_556  A
C2582      H2587   1.083       .  S
C2583      C2584   1.411       .  A
C2583     Br2591   1.921       .  S
C2584      C2585   1.406       .  A
C2585      C2586   1.393   1_554  A
C2585      H2588   1.084       .  S
C2586     Br2592   1.920       .  S
C2593      C2594   1.426       .  A
C2593      C2598   1.411       .  A
C2594      C2595   1.395       .  A
C2594     Br2610   1.923       .  S
C2595      C2596   1.394       .  A
C2595      H2599   1.084       .  S
C2596      C2600   1.479       .  S
C2596      C2597   1.407       .  A
C2597      C2598   1.404       .  A
C2597     Br2609   1.917       .  S
C2598      H2601   1.083       .  S
C2600      C2602   1.402       .  A
C2600      C2606   1.409       .  A
C2602      C2603   1.399       .  A
C2602      H2607   1.084       .  S
C2603      C2604   1.408       .  A
C2603     Br2611   1.919       .  S
C2604      C2605   1.403       .  A
C2605      C2606   1.402       .  A
C2605      H2608   1.083       .  S
C2606     Br2612   1.918       .  S
C2613      C2614   1.409       .  A
C2613      C2618   1.401       .  A
C2614      C2615   1.398       .  A
C2614     Br2630   1.919       .  S
C2615      C2616   1.401       .  A
C2615      H2619   1.084       .  S
C2616      C2620   1.479       .  S
C2616      C2617   1.410       .  A
C2617      C2618   1.401       .  A
C2617     Br2629   1.917       .  S
C2618      H2621   1.083       .  S
C2620      C2622   1.401       .  A
C2620      C2626   1.406       .  A
C2622      C2623   1.401       .  A
C2622      H2627   1.084       .  S
C2623      C2624   1.418       .  A
C2623     Br2631   1.921       .  S
C2624      C2625   1.409       .  A
C2625      C2626   1.399       .  A
C2625      H2628   1.083       .  S
C2626     Br2632   1.919       .  S
C2633      C2634   1.417       .  A
C2633      C2638   1.410       .  A
C2634      C2635   1.403       .  A
C2634     Br2650   1.917       .  S
C2635      C2636   1.401       .  A
C2635      H2639   1.084       .  S
C2636      C2640   1.487   1_655  S
C2636      C2637   1.409       .  A
C2637      C2638   1.400       .  A
C2637     Br2649   1.921       .  S
C2638      H2641   1.083       .  S
C2640      C2642   1.402       .  A
C2640      C2646   1.411       .  A
C2642      C2643   1.400       .  A
C2642      H2647   1.084       .  S
C2643      C2644   1.414       .  A
C2643     Br2651   1.920       .  S
C2644      C2645   1.407       .  A
C2645      C2646   1.402       .  A
C2645      H2648   1.083       .  S
C2646     Br2652   1.919       .  S
C2653      C2654   1.411       .  A
C2653      C2658   1.402       .  A
C2654      C2655   1.398       .  A
C2654     Br2670   1.921       .  S
C2655      C2656   1.403       .  A
C2655      H2659   1.083       .  S
C2656      C2660   1.487       .  S
C2656      C2657   1.413       .  A
C2657      C2658   1.401       .  A
C2657     Br2669   1.919       .  S
C2658      H2661   1.084       .  S
C2660      C2662   1.406       .  A
C2660      C2666   1.411       .  A
C2662      C2663   1.401       .  A
C2662      H2667   1.083       .  S
C2663      C2664   1.408       .  A
C2663     Br2671   1.918       .  S
C2664      C2665   1.404       .  A
C2665      C2666   1.399       .  A
C2665      H2668   1.084       .  S
C2666     Br2672   1.921       .  S
C2673      C2674   1.419   1_554  A
C2673      C2678   1.409       .  A
C2674      C2675   1.409       .  A
C2674     Br2690   1.920       .  S
C2675      C2676   1.405   1_556  A
C2675      H2679   1.083       .  S
C2676      C2680   1.493   1_654  S
C2676      C2677   1.408       .  A
C2677      C2678   1.401       .  A
C2677     Br2689   1.919   1_655  S
C2678      H2681   1.083       .  S
C2680      C2682   1.404       .  A
C2680      C2686   1.410   1_556  A
C2682      C2683   1.405       .  A
C2682      H2687   1.083       .  S
C2683      C2684   1.415       .  A
C2683     Br2691   1.920       .  S
C2684      C2685   1.408       .  A
C2685      C2686   1.406   1_556  A
C2685      H2688   1.083   1_556  S
C2686     Br2692   1.918       .  S
C2693      C2694   1.410       .  A
C2693      C2698   1.406       .  A
C2694      C2695   1.402       .  A
C2694     Br2710   1.919       .  S
C2695      C2696   1.403       .  A
C2695      H2699   1.083       .  S
C2696      C2700   1.477       .  S
C2696      C2697   1.405       .  A
C2697      C2698   1.398       .  A
C2697     Br2709   1.920       .  S
C2698      H2701   1.084       .  S
C2700      C2702   1.399       .  A
C2700      C2706   1.409       .  A
C2702      C2703   1.396       .  A
C2702      H2707   1.084       .  S
C2703      C2704   1.412       .  A
C2703     Br2711   1.919       .  S
C2704      C2705   1.404       .  A
C2705      C2706   1.402       .  A
C2705      H2708   1.084       .  S
C2706     Br2712   1.918       .  S
C2713      C2714   1.411       .  A
C2713      C2718   1.405       .  A
C2714      C2715   1.405       .  A
C2714     Br2730   1.920       .  S
C2715      C2716   1.405       .  A
C2715      H2719   1.083       .  S
C2716      C2720   1.478       .  S
C2716      C2717   1.405       .  A
C2717      C2718   1.394       .  A
C2717     Br2729   1.918       .  S
C2718      H2721   1.084       .  S
C2720      C2722   1.405       .  A
C2720      C2726   1.405       .  A
C2722      C2723   1.405       .  A
C2722      H2727   1.083       .  S
C2723      C2724   1.411       .  A
C2723     Br2731   1.919       .  S
C2724      C2725   1.406       .  A
C2725      C2726   1.396       .  A
C2725      H2728   1.084       .  S
C2726     Br2732   1.919       .  S
C2733      C2734   1.413       .  A
C2733      C2738   1.405       .  A
C2734      C2735   1.399       .  A
C2734     Br2750   1.917       .  S
C2735      C2736   1.398       .  A
C2735      H2739   1.084       .  S
C2736      C2740   1.484       .  S
C2736      C2737   1.411       .  A
C2737      C2738   1.408       .  A
C2737     Br2749   1.918       .  S
C2738      H2741   1.083       .  S
C2740      C2742   1.402       .  A
C2740      C2746   1.407       .  A
C2742      C2743   1.402       .  A
C2742      H2747   1.083       .  S
C2743      C2744   1.416       .  A
C2743     Br2751   1.920       .  S
C2744      C2745   1.409       .  A
C2745      C2746   1.402       .  A
C2745      H2748   1.083       .  S
C2746     Br2752   1.917       .  S
C2753      C2754   1.414       .  A
C2753      C2758   1.408   1_556  A
C2754      C2755   1.405       .  A
C2754     Br2770   1.918       .  S
C2755      C2756   1.402       .  A
C2755      H2759   1.083       .  S
C2756      C2760   1.489   1_655  S
C2756      C2757   1.408   1_556  A
C2757      C2758   1.406       .  A
C2757     Br2769   1.918       .  S
C2758      H2761   1.083       .  S
C2760      C2762   1.404   1_556  A
C2760      C2766   1.407       .  A
C2762      C2763   1.408       .  A
C2762      H2767   1.083       .  S
C2763      C2764   1.416   1_554  A
C2763     Br2771   1.917       .  S
C2764      C2765   1.409       .  A
C2765      C2766   1.401       .  A
C2765      H2768   1.083       .  S
C2766     Br2772   1.919       .  S
C2773      C2774   1.409       .  A
C2773      C2778   1.403       .  A
C2774      C2775   1.399       .  A
C2774     Br2790   1.918       .  S
C2775      C2776   1.402       .  A
C2775      H2779   1.083       .  S
C2776      C2780   1.487       .  S
C2776      C2777   1.412       .  A
C2777      C2778   1.406       .  A
C2777     Br2789   1.918       .  S
C2778      H2781   1.083       .  S
C2780      C2782   1.403       .  A
C2780      C2786   1.408       .  A
C2782      C2783   1.404       .  A
C2782      H2787   1.083       .  S
C2783      C2784   1.414       .  A
C2783     Br2791   1.919       .  S
C2784      C2785   1.408       .  A
C2785      C2786   1.402       .  A
C2785      H2788   1.083       .  S
C2786     Br2792   1.919       .  S
C2793      C2794   1.417   1_556  A
C2793      C2798   1.411       .  A
C2794      C2795   1.409       .  A
C2794     Br2810   1.916       .  S
C2795      C2796   1.405       .  A
C2795      H2799   1.083       .  S
C2796      C2800   1.488       .  S
C2796      C2797   1.404   1_554  A
C2797      C2798   1.399       .  A
C2797     Br2809   1.919       .  S
C2798      H2801   1.083       .  S
C2800      C2802   1.401   1_554  A
C2800      C2806   1.405       .  A
C2802      C2803   1.405       .  A
C2802      H2807   1.084       .  S
C2803      C2804   1.420   1_556  A
C2803     Br2811   1.916       .  S
C2804      C2805   1.414       .  A
C2805      C2806   1.403       .  A
C2805      H2808   1.083       .  S
C2806     Br2812   1.918       .  S
C2813      C2814   1.416       .  A
C2813      C2818   1.407       .  A
C2814      C2815   1.401       .  A
C2814     Br2830   1.919       .  S
C2815      C2816   1.401       .  A
C2815      H2819   1.084       .  S
C2816      C2820   1.479   1_655  S
C2816      C2817   1.406       .  A
C2817      C2818   1.400       .  A
C2817     Br2829   1.917       .  S
C2818      H2821   1.083       .  S
C2820      C2822   1.405       .  A
C2820      C2826   1.405       .  A
C2822      C2823   1.407       .  A
C2822      H2827   1.083       .  S
C2823      C2824   1.412       .  A
C2823     Br2831   1.918       .  S
C2824      C2825   1.405       .  A
C2825      C2826   1.394       .  A
C2825      H2828   1.084       .  S
C2826     Br2832   1.920   1_455  S
C2833      C2834   1.412       .  A
C2833      C2838   1.407       .  A
C2834      C2835   1.402       .  A
C2834     Br2850   1.920       .  S
C2835      C2836   1.403       .  A
C2835      H2839   1.083       .  S
C2836      C2840   1.471       .  S
C2836      C2837   1.402       .  A
C2837      C2838   1.393       .  A
C2837     Br2849   1.919       .  S
C2838      H2841   1.084       .  S
C2840      C2842   1.402       .  A
C2840      C2846   1.405       .  A
C2842      C2843   1.400       .  A
C2842      H2847   1.083       .  S
C2843      C2844   1.410       .  A
C2843     Br2851   1.919       .  S
C2844      C2845   1.405       .  A
C2845      C2846   1.395       .  A
C2845      H2848   1.084       .  S
C2846     Br2852   1.919       .  S
C2853      C2854   1.416       .  A
C2853      C2858   1.410       .  A
C2854      C2855   1.405       .  A
C2854     Br2870   1.921       .  S
C2855      C2856   1.404       .  A
C2855      H2859   1.083       .  S
C2856      C2860   1.475       .  S
C2856      C2857   1.401       .  A
C2857      C2858   1.391       .  A
C2857     Br2869   1.919       .  S
C2858      H2861   1.083       .  S
C2860      C2862   1.404       .  A
C2860      C2866   1.405       .  A
C2862      C2863   1.400       .  A
C2862      H2867   1.084       .  S
C2863      C2864   1.408       .  A
C2863     Br2871   1.916       .  S
C2864      C2865   1.405       .  A
C2865      C2866   1.397       .  A
C2865      H2868   1.084       .  S
C2866     Br2872   1.918       .  S
C2873      C2874   1.411       .  A
C2873      C2878   1.404       .  A
C2874      C2875   1.403       .  A
C2874     Br2890   1.919       .  S
C2875      C2876   1.405       .  A
C2875      H2879   1.083       .  S
C2876      C2880   1.495       .  S
C2876      C2877   1.413       .  A
C2877      C2878   1.407       .  A
C2877     Br2889   1.918       .  S
C2878      H2881   1.083       .  S
C2880      C2882   1.406       .  A
C2880      C2886   1.411       .  A
C2882      C2883   1.405       .  A
C2882      H2887   1.083       .  S
C2883      C2884   1.413       .  A
C2883     Br2891   1.919       .  S
C2884      C2885   1.406       .  A
C2885      C2886   1.404       .  A
C2885      H2888   1.084       .  S
C2886     Br2892   1.919       .  S
C2893      C2894   1.413       .  A
C2893      C2898   1.404       .  A
C2894      C2895   1.397       .  A
C2894     Br2910   1.919       .  S
C2895      C2896   1.398       .  A
C2895      H2899   1.084       .  S
C2896      C2900   1.478       .  S
C2896      C2897   1.410       .  A
C2897      C2898   1.403       .  A
C2897     Br2909   1.918       .  S
C2898      H2901   1.083       .  S
C2900      C2902   1.397       .  A
C2900      C2906   1.405       .  A
C2902      C2903   1.398       .  A
C2902      H2907   1.084       .  S
C2903      C2904   1.422       .  A
C2903     Br2911   1.923       .  S
C2904      C2905   1.412       .  A
C2905      C2906   1.402       .  A
C2905      H2908   1.083       .  S
C2906     Br2912   1.918       .  S
C2913      C2914   1.415       .  A
C2913      C2918   1.405       .  A
C2914      C2915   1.403       .  A
C2914     Br2930   1.920       .  S
C2915      C2916   1.402       .  A
C2915      H2919   1.084       .  S
C2916      C2920   1.487       .  S
C2916      C2917   1.409       .  A
C2917      C2918   1.405       .  A
C2917     Br2929   1.917       .  S
C2918      H2921   1.083       .  S
C2920      C2922   1.400       .  A
C2920      C2926   1.408       .  A
C2922      C2923   1.399       .  A
C2922      H2927   1.084       .  S
C2923      C2924   1.415       .  A
C2923     Br2931   1.918       .  S
C2924      C2925   1.410       .  A
C2925      C2926   1.408       .  A
C2925      H2928   1.083       .  S
C2926     Br2932   1.916       .  S
C2933      C2934   1.412       .  A
C2933      C2938   1.405       .  A
C2934      C2935   1.398       .  A
C2934     Br2950   1.919       .  S
C2935      C2936   1.400       .  A
C2935      H2939   1.084       .  S
C2936      C2940   1.476       .  S
C2936      C2937   1.408       .  A
C2937      C2938   1.400       .  A
C2937     Br2949   1.920       .  S
C2938      H2941   1.084       .  S
C2940      C2942   1.399       .  A
C2940      C2946   1.408       .  A
C2942      C2943   1.393       .  A
C2942      H2947   1.084       .  S
C2943      C2944   1.410       .  A
C2943     Br2951   1.920       .  S
C2944      C2945   1.405       .  A
C2945      C2946   1.405       .  A
C2945      H2948   1.083       .  S
C2946     Br2952   1.917       .  S
C2953      C2954   1.413       .  A
C2953      C2958   1.405       .  A
C2954      C2955   1.396       .  A
C2954     Br2970   1.919       .  S
C2955      C2956   1.398       .  A
C2955      H2959   1.084       .  S
C2956      C2960   1.474       .  S
C2956      C2957   1.407       .  A
C2957      C2958   1.402       .  A
C2957     Br2969   1.917       .  S
C2958      H2961   1.083       .  S
C2960      C2962   1.398       .  A
C2960      C2966   1.407       .  A
C2962      C2963   1.398       .  A
C2962      H2967   1.084       .  S
C2963      C2964   1.417       .  A
C2963     Br2971   1.922       .  S
C2964      C2965   1.404       .  A
C2965      C2966   1.399       .  A
C2965      H2968   1.084       .  S
C2966     Br2972   1.917       .  S
C2973      C2974   1.415       .  A
C2973      C2978   1.407       .  A
C2974      C2975   1.396       .  A
C2974     Br2990   1.918       .  S
C2975      C2976   1.397       .  A
C2975      H2979   1.084       .  S
C2976      C2980   1.470       .  S
C2976      C2977   1.405       .  A
C2977      C2978   1.400       .  A
C2977     Br2989   1.919       .  S
C2978      H2981   1.083       .  S
C2980      C2982   1.397       .  A
C2980      C2986   1.407       .  A
C2982      C2983   1.394       .  A
C2982      H2987   1.084       .  S
C2983      C2984   1.413       .  A
C2983     Br2991   1.921       .  S
C2984      C2985   1.404       .  A
C2985      C2986   1.400       .  A
C2985      H2988   1.083       .  S
C2986     Br2992   1.917       .  S
C2993      C2994   1.416       .  A
C2993      C2998   1.407       .  A
C2994      C2995   1.401       .  A
C2994     Br3010   1.919       .  S
C2995      C2996   1.401       .  A
C2995      H2999   1.084       .  S
C2996      C3000   1.476       .  S
C2996      C2997   1.405       .  A
C2997      C2998   1.395       .  A
C2997     Br3009   1.919       .  S
C2998      H3001   1.084       .  S
C3000      C3002   1.403       .  A
C3000      C3006   1.405       .  A
C3002      C3003   1.404       .  A
C3002      H3007   1.083       .  S
C3003      C3004   1.412       .  A
C3003     Br3011   1.919       .  S
C3004      C3005   1.406       .  A
C3005      C3006   1.394       .  A
C3005      H3008   1.084       .  S
C3006     Br3012   1.921       .  S
C3013      C3014   1.410       .  A
C3013      C3018   1.405       .  A
C3014      C3015   1.402       .  A
C3014     Br3030   1.919       .  S
C3015      C3016   1.405       .  A
C3015      H3019   1.083       .  S
C3016      C3020   1.485       .  S
C3016      C3017   1.409       .  A
C3017      C3018   1.399       .  A
C3017     Br3029   1.920       .  S
C3018      H3021   1.084       .  S
C3020      C3022   1.403       .  A
C3020      C3026   1.412       .  A
C3022      C3023   1.397       .  A
C3022      H3027   1.084       .  S
C3023      C3024   1.409       .  A
C3023     Br3031   1.919       .  S
C3024      C3025   1.402       .  A
C3025      C3026   1.403       .  A
C3025      H3028   1.083       .  S
C3026     Br3032   1.918       .  S
C3033      C3034   1.415       .  A
C3033      C3038   1.408       .  A
C3034      C3035   1.406       .  A
C3034     Br3050   1.918       .  S
C3035      C3036   1.404       .  A
C3035      H3039   1.083       .  S
C3036      C3040   1.483       .  S
C3036      C3037   1.406       .  A
C3037      C3038   1.397       .  A
C3037     Br3049   1.920       .  S
C3038      H3041   1.084       .  S
C3040      C3042   1.404       .  A
C3040      C3046   1.407       .  A
C3042      C3043   1.403       .  A
C3042      H3047   1.083       .  S
C3043      C3044   1.411       .  A
C3043     Br3051   1.918       .  S
C3044      C3045   1.407       .  A
C3045      C3046   1.401       .  A
C3045      H3048   1.084       .  S
C3046     Br3052   1.919       .  S
C3053      C3054   1.409       .  A
C3053      C3058   1.402       .  A
C3054      C3055   1.397       .  A
C3054     Br3070   1.919       .  S
C3055      C3056   1.400       .  A
C3055      H3059   1.084       .  S
C3056      C3060   1.474       .  S
C3056      C3057   1.409       .  A
C3057      C3058   1.400       .  A
C3057     Br3069   1.919       .  S
C3058      H3061   1.084       .  S
C3060      C3062   1.402       .  A
C3060      C3066   1.399       .  A
C3062      C3063   1.404       .  A
C3062      H3067   1.084       .  S
C3063      C3064   1.419       .  A
C3063     Br3071   1.920       .  S
C3064      C3065   1.414       .  A
C3065      C3066   1.392       .  A
C3065      H3068   1.083       .  S
C3066     Br3072   1.920       .  S
C3073      C3074   1.410       .  A
C3073      C3078   1.406       .  A
C3074      C3075   1.403       .  A
C3074     Br3090   1.918       .  S
C3075      C3076   1.404       .  A
C3075      H3079   1.083       .  S
C3076      C3080   1.478       .  S
C3076      C3077   1.405       .  A
C3077      C3078   1.397       .  A
C3077     Br3089   1.919       .  S
C3078      H3081   1.084       .  S
C3080      C3082   1.403       .  A
C3080      C3086   1.403       .  A
C3082      C3083   1.404   1_554  A
C3082      H3087   1.083       .  S
C3083      C3084   1.415       .  A
C3083     Br3091   1.920       .  S
C3084      C3085   1.409       .  A
C3085      C3086   1.396   1_556  A
C3085      H3088   1.084       .  S
C3086     Br3092   1.919       .  S
C3093      C3094   1.408       .  A
C3093      C3098   1.401       .  A
C3094      C3095   1.403       .  A
C3094     Br3110   1.919       .  S
C3095      C3096   1.408       .  A
C3095      H3099   1.083       .  S
C3096      C3100   1.490       .  S
C3096      C3097   1.412       .  A
C3097      C3098   1.398       .  A
C3097     Br3109   1.920       .  S
C3098      H3101   1.084       .  S
C3100      C3102   1.404       .  A
C3100      C3106   1.413       .  A
C3102      C3103   1.399       .  A
C3102      H3107   1.084       .  S
C3103      C3104   1.411       .  A
C3103     Br3111   1.919       .  S
C3104      C3105   1.404       .  A
C3105      C3106   1.403       .  A
C3105      H3108   1.083       .  S
C3106     Br3112   1.920       .  S
C3113      C3114   1.414       .  A
C3113      C3118   1.407       .  A
C3114      C3115   1.402       .  A
C3114     Br3130   1.919       .  S
C3115      C3116   1.402       .  A
C3115      H3119   1.084       .  S
C3116      C3120   1.481       .  S
C3116      C3117   1.407       .  A
C3117      C3118   1.400       .  A
C3117     Br3129   1.919       .  S
C3118      H3121   1.084       .  S
C3120      C3122   1.405       .  A
C3120      C3126   1.405       .  A
C3122      C3123   1.407       .  A
C3122      H3127   1.083       .  S
C3123      C3124   1.414       .  A
C3123     Br3131   1.918       .  S
C3124      C3125   1.408       .  A
C3125      C3126   1.393       .  A
C3125      H3128   1.083       .  S
C3126     Br3132   1.921       .  S
C3133      C3134   1.410       .  A
C3133      C3138   1.407       .  A
C3134      C3135   1.405       .  A
C3134     Br3150   1.919       .  S
C3135      C3136   1.409       .  A
C3135      H3139   1.083       .  S
C3136      C3140   1.491   1_545  S
C3136      C3137   1.409       .  A
C3137      C3138   1.396       .  A
C3137     Br3149   1.921       .  S
C3138      H3141   1.084       .  S
C3140      C3142   1.408       .  A
C3140      C3146   1.408       .  A
C3142      C3143   1.405       .  A
C3142      H3147   1.083       .  S
C3143      C3144   1.414       .  A
C3143     Br3151   1.920       .  S
C3144      C3145   1.409       .  A
C3145      C3146   1.397       .  A
C3145      H3148   1.083       .  S
C3146     Br3152   1.921       .  S
C3153      C3154   1.413       .  A
C3153      C3158   1.404       .  A
C3154      C3155   1.407       .  A
C3154     Br3170   1.919       .  S
C3155      C3156   1.405       .  A
C3155      H3159   1.083       .  S
C3156      C3160   1.485       .  S
C3156      C3157   1.408       .  A
C3157      C3158   1.398       .  A
C3157     Br3169   1.920       .  S
C3158      H3161   1.084       .  S
C3160      C3162   1.401       .  A
C3160      C3166   1.405       .  A
C3162      C3163   1.403       .  A
C3162      H3167   1.084       .  S
C3163      C3164   1.421       .  A
C3163     Br3171   1.923       .  S
C3164      C3165   1.410       .  A
C3165      C3166   1.402       .  A
C3165      H3168   1.083       .  S
C3166     Br3172   1.917       .  S
C3173      C3174   1.412       .  A
C3173      C3178   1.404       .  A
C3174      C3175   1.396   1_554  A
C3174     Br3190   1.919       .  S
C3175      C3176   1.399       .  A
C3175      H3179   1.084       .  S
C3176      C3180   1.476       .  S
C3176      C3177   1.409       .  A
C3177      C3178   1.401   1_556  A
C3177     Br3189   1.919       .  S
C3178      H3181   1.083       .  S
C3180      C3182   1.399       .  A
C3180      C3186   1.410       .  A
C3182      C3183   1.395       .  A
C3182      H3187   1.084       .  S
C3183      C3184   1.411       .  A
C3183     Br3191   1.920       .  S
C3184      C3185   1.403       .  A
C3185      C3186   1.402       .  A
C3185      H3188   1.083       .  S
C3186     Br3192   1.919       .  S
C3193      C3194   1.411       .  A
C3193      C3198   1.403       .  A
C3194      C3195   1.397       .  A
C3194     Br3210   1.920       .  S
C3195      C3196   1.400       .  A
C3195      H3199   1.084       .  S
C3196      C3200   1.480       .  S
C3196      C3197   1.412       .  A
C3197      C3198   1.402       .  A
C3197     Br3209   1.921       .  S
C3198      H3201   1.083       .  S
C3200      C3202   1.404       .  A
C3200      C3206   1.402       .  A
C3202      C3203   1.405       .  A
C3202      H3207   1.084       .  S
C3203      C3204   1.420       .  A
C3203     Br3211   1.921       .  S
C3204      C3205   1.413       .  A
C3205      C3206   1.393       .  A
C3205      H3208   1.083       .  S
C3206     Br3212   1.921       .  S
C3213      C3214   1.419       .  A
C3213      C3218   1.414       .  A
C3214      C3215   1.405       .  A
C3214     Br3230   1.916       .  S
C3215      C3216   1.402       .  A
C3215      H3219   1.084       .  S
C3216      C3220   1.487   1_545  S
C3216      C3217   1.405       .  A
C3217      C3218   1.401       .  A
C3217     Br3229   1.920       .  S
C3218      H3221   1.083       .  S
C3220      C3222   1.404       .  A
C3220      C3226   1.407       .  A
C3222      C3223   1.405       .  A
C3222      H3227   1.083       .  S
C3223      C3224   1.415       .  A
C3223     Br3231   1.917       .  S
C3224      C3225   1.408       .  A
C3225      C3226   1.400       .  A
C3225      H3228   1.083       .  S
C3226     Br3232   1.918       .  S
C3233      C3234   1.414       .  A
C3233      C3238   1.406       .  A
C3234      C3235   1.402       .  A
C3234     Br3250   1.919       .  S
C3235      C3236   1.401       .  A
C3235      H3239   1.084       .  S
C3236      C3240   1.484       .  S
C3236      C3237   1.408       .  A
C3237      C3238   1.403       .  A
C3237     Br3249   1.918       .  S
C3238      H3241   1.083       .  S
C3240      C3242   1.404       .  A
C3240      C3246   1.406       .  A
C3242      C3243   1.408       .  A
C3242      H3247   1.083       .  S
C3243      C3244   1.416       .  A
C3243     Br3251   1.919       .  S
C3244      C3245   1.409       .  A
C3245      C3246   1.397       .  A
C3245      H3248   1.083       .  S
C3246     Br3252   1.921       .  S
C3253      C3254   1.414       .  A
C3253      C3258   1.410       .  A
C3254      C3255   1.404       .  A
C3254     Br3270   1.918       .  S
C3255      C3256   1.405       .  A
C3255      H3259   1.084       .  S
C3256      C3260   1.485   1_565  S
C3256      C3257   1.406       .  A
C3257      C3258   1.397       .  A
C3257     Br3269   1.920       .  S
C3258      H3261   1.083       .  S
C3260      C3262   1.407       .  A
C3260      C3266   1.406       .  A
C3262      C3263   1.406       .  A
C3262      H3267   1.083       .  S
C3263      C3264   1.412       .  A
C3263     Br3271   1.918       .  S
C3264      C3265   1.408       .  A
C3265      C3266   1.395       .  A
C3265      H3268   1.083       .  S
C3266     Br3272   1.920       .  S
C3273      C3274   1.408       .  A
C3273      C3278   1.403       .  A
C3274      C3275   1.405       .  A
C3274     Br3290   1.918       .  S
C3275      C3276   1.407       .  A
C3275      H3279   1.083       .  S
C3276      C3280   1.490       .  S
C3276      C3277   1.411       .  A
C3277      C3278   1.401       .  A
C3277     Br3289   1.919       .  S
C3278      H3281   1.084       .  S
C3280      C3282   1.404       .  A
C3280      C3286   1.412       .  A
C3282      C3283   1.401       .  A
C3282      H3287   1.084       .  S
C3283      C3284   1.413       .  A
C3283     Br3291   1.920       .  S
C3284      C3285   1.405       .  A
C3285      C3286   1.403       .  A
C3285      H3288   1.084       .  S
C3286     Br3292   1.918       .  S
C3293      C3294   1.414       .  A
C3293      C3298   1.409       .  A
C3294      C3295   1.404       .  A
C3294     Br3310   1.914       .  S
C3295      C3296   1.402       .  A
C3295      H3299   1.083       .  S
C3296      C3300   1.477       .  S
C3296      C3297   1.405       .  A
C3297      C3298   1.394       .  A
C3297     Br3309   1.922       .  S
C3298      H3301   1.083       .  S
C3300      C3302   1.402       .  A
C3300      C3306   1.406       .  A
C3302      C3303   1.402       .  A
C3302      H3307   1.084       .  S
C3303      C3304   1.415       .  A
C3303     Br3311   1.919       .  S
C3304      C3305   1.407       .  A
C3305      C3306   1.396       .  A
C3305      H3308   1.084       .  S
C3306     Br3312   1.920       .  S
C3313      C3314   1.413       .  A
C3313      C3318   1.408       .  A
C3314      C3315   1.403       .  A
C3314     Br3330   1.920       .  S
C3315      C3316   1.403       .  A
C3315      H3319   1.083       .  S
C3316      C3320   1.475       .  S
C3316      C3317   1.404       .  A
C3317      C3318   1.396       .  A
C3317     Br3329   1.920       .  S
C3318      H3321   1.084       .  S
C3320      C3322   1.398       .  A
C3320      C3326   1.408       .  A
C3322      C3323   1.396       .  A
C3322      H3327   1.084       .  S
C3323      C3324   1.415       .  A
C3323     Br3331   1.920       .  S
C3324      C3325   1.404       .  A
C3325      C3326   1.402       .  A
C3325      H3328   1.083       .  S
C3326     Br3332   1.917       .  S
C3333      C3334   1.416       .  A
C3333      C3338   1.410       .  A
C3334      C3335   1.405       .  A
C3334     Br3350   1.920       .  S
C3335      C3336   1.403       .  A
C3335      H3339   1.083       .  S
C3336      C3340   1.477       .  S
C3336      C3337   1.402       .  A
C3337      C3338   1.396       .  A
C3337     Br3349   1.919       .  S
C3338      H3341   1.083       .  S
C3340      C3342   1.399       .  A
C3340      C3346   1.409       .  A
C3342      C3343   1.399       .  A
C3342      H3347   1.083       .  S
C3343      C3344   1.413       .  A
C3343     Br3351   1.920       .  S
C3344      C3345   1.403       .  A
C3345      C3346   1.401       .  A
C3345      H3348   1.083       .  S
C3346     Br3352   1.918       .  S
C3353      C3354   1.412   1_554  A
C3353      C3358   1.405       .  A
C3354      C3355   1.402       .  A
C3354     Br3370   1.920       .  S
C3355      C3356   1.404   1_556  A
C3355      H3359   1.083       .  S
C3356      C3360   1.488   1_565  S
C3356      C3357   1.410       .  A
C3357      C3358   1.401       .  A
C3357     Br3369   1.919       .  S
C3358      H3361   1.084       .  S
C3360      C3362   1.404   1_554  A
C3360      C3366   1.412       .  A
C3362      C3363   1.400       .  A
C3362      H3367   1.084       .  S
C3363      C3364   1.410       .  A
C3363     Br3371   1.919       .  S
C3364      C3365   1.402   1_556  A
C3365      C3366   1.403       .  A
C3365      H3368   1.083       .  S
C3366     Br3372   1.918       .  S
C3373      C3374   1.409       .  A
C3373      C3378   1.402       .  A
C3374      C3375   1.395       .  A
C3374     Br3390   1.918       .  S
C3375      C3376   1.400       .  A
C3375      H3379   1.084       .  S
C3376      C3380   1.478       .  S
C3376      C3377   1.410       .  A
C3377      C3378   1.403       .  A
C3377     Br3389   1.917       .  S
C3378      H3381   1.083       .  S
C3380      C3382   1.403       .  A
C3380      C3386   1.406       .  A
C3382      C3383   1.401       .  A
C3382      H3387   1.084       .  S
C3383      C3384   1.411       .  A
C3383     Br3391   1.919       .  S
C3384      C3385   1.405       .  A
C3385      C3386   1.398       .  A
C3385      H3388   1.084       .  S
C3386     Br3392   1.919       .  S
C3393      C3394   1.415       .  A
C3393      C3398   1.407       .  A
C3394      C3395   1.406       .  A
C3394     Br3410   1.920       .  S
C3395      C3396   1.406       .  A
C3395      H3399   1.083       .  S
C3396      C3400   1.494       .  S
C3396      C3397   1.409       .  A
C3397      C3398   1.403       .  A
C3397     Br3409   1.918       .  S
C3398      H3401   1.083       .  S
C3400      C3402   1.407       .  A
C3400      C3406   1.407       .  A
C3402      C3403   1.410       .  A
C3402      H3407   1.083       .  S
C3403      C3404   1.417       .  A
C3403     Br3411   1.917       .  S
C3404      C3405   1.411       .  A
C3405      C3406   1.399       .  A
C3405      H3408   1.083       .  S
C3406     Br3412   1.921       .  S
C3413      C3414   1.415       .  A
C3413      C3418   1.409       .  A
C3414      C3415   1.397       .  A
C3414     Br3430   1.920       .  S
C3415      C3416   1.399       .  A
C3415      H3419   1.084       .  S
C3416      C3420   1.483       .  S
C3416      C3417   1.408       .  A
C3417      C3418   1.407       .  A
C3417     Br3429   1.916       .  S
C3418      H3421   1.083       .  S
C3420      C3422   1.402       .  A
C3420      C3426   1.408       .  A
C3422      C3423   1.402       .  A
C3422      H3427   1.083       .  S
C3423      C3424   1.412       .  A
C3423     Br3431   1.918       .  S
C3424      C3425   1.406       .  A
C3425      C3426   1.403       .  A
C3425      H3428   1.083       .  S
C3426     Br3432   1.918       .  S
C3433      C3434   1.414       .  A
C3433      C3438   1.407       .  A
C3434      C3435   1.401       .  A
C3434     Br3450   1.918       .  S
C3435      C3436   1.401       .  A
C3435      H3439   1.084       .  S
C3436      C3440   1.483       .  S
C3436      C3437   1.409       .  A
C3437      C3438   1.404       .  A
C3437     Br3449   1.919       .  S
C3438      H3441   1.083       .  S
C3440      C3442   1.397       .  A
C3440      C3446   1.408       .  A
C3442      C3443   1.396       .  A
C3442      H3447   1.084       .  S
C3443      C3444   1.417       .  A
C3443     Br3451   1.919       .  S
C3444      C3445   1.409       .  A
C3445      C3446   1.406       .  A
C3445      H3448   1.083       .  S
C3446     Br3452   1.916       .  S
C3453      C3454   1.415       .  A
C3453      C3458   1.408       .  A
C3454      C3455   1.402       .  A
C3454     Br3470   1.917       .  S
C3455      C3456   1.401       .  A
C3455      H3459   1.084       .  S
C3456      C3460   1.478       .  S
C3456      C3457   1.404       .  A
C3457      C3458   1.398       .  A
C3457     Br3469   1.918       .  S
C3458      H3461   1.084       .  S
C3460      C3462   1.400       .  A
C3460      C3466   1.405       .  A
C3462      C3463   1.398       .  A
C3462      H3467   1.084       .  S
C3463      C3464   1.415       .  A
C3463     Br3471   1.920       .  S
C3464      C3465   1.408       .  A
C3465      C3466   1.403       .  A
C3465      H3468   1.083       .  S
C3466     Br3472   1.916       .  S
C3473      C3474   1.416       .  A
C3473      C3478   1.405       .  A
C3474      C3475   1.394       .  A
C3474     Br3490   1.921       .  S
C3475      C3476   1.396       .  A
C3475      H3479   1.084       .  S
C3476      C3480   1.473       .  S
C3476      C3477   1.408       .  A
C3477      C3478   1.401       .  A
C3477     Br3489   1.918       .  S
C3478      H3481   1.083       .  S
C3480      C3482   1.400       .  A
C3480      C3486   1.407       .  A
C3482      C3483   1.396       .  A
C3482      H3487   1.084       .  S
C3483      C3484   1.410       .  A
C3483     Br3491   1.919       .  S
C3484      C3485   1.403       .  A
C3485      C3486   1.400       .  A
C3485      H3488   1.083       .  S
C3486     Br3492   1.918       .  S
C3493      C3494   1.412       .  A
C3493      C3498   1.405       .  A
C3494      C3495   1.397       .  A
C3494     Br3510   1.919       .  S
C3495      C3496   1.399       .  A
C3495      H3499   1.084       .  S
C3496      C3500   1.475       .  S
C3496      C3497   1.407       .  A
C3497      C3498   1.401       .  A
C3497     Br3509   1.918       .  S
C3498      H3501   1.083       .  S
C3500      C3502   1.403       .  A
C3500      C3506   1.402       .  A
C3502      C3503   1.403   1_554  A
C3502      H3507   1.083       .  S
C3503      C3504   1.413       .  A
C3503     Br3511   1.920       .  S
C3504      C3505   1.408       .  A
C3505      C3506   1.396   1_556  A
C3505      H3508   1.084       .  S
C3506     Br3512   1.920       .  S
C3513      C3514   1.415       .  A
C3513      C3518   1.408   1_556  A
C3514      C3515   1.394       .  A
C3514     Br3530   1.915       .  S
C3515      C3516   1.397       .  A
C3515      H3519   1.084       .  S
C3516      C3520   1.480   1_655  S
C3516      C3517   1.408   1_556  A
C3517      C3518   1.407       .  A
C3517     Br3529   1.917       .  S
C3518      H3521   1.083       .  S
C3520      C3522   1.399       .  A
C3520      C3526   1.407       .  A
C3522      C3523   1.397       .  A
C3522      H3527   1.084       .  S
C3523      C3524   1.415       .  A
C3523     Br3531   1.919       .  S
C3524      C3525   1.411       .  A
C3525      C3526   1.404       .  A
C3525      H3528   1.083       .  S
C3526     Br3532   1.919       .  S
C3533      C3534   1.415       .  A
C3533      C3538   1.408       .  A
C3534      C3535   1.409       .  A
C3534     Br3550   1.918       .  S
C3535      C3536   1.405       .  A
C3535      H3539   1.083       .  S
C3536      C3540   1.484       .  S
C3536      C3537   1.405       .  A
C3537      C3538   1.395       .  A
C3537     Br3549   1.922       .  S
C3538      H3541   1.083       .  S
C3540      C3542   1.402       .  A
C3540      C3546   1.408       .  A
C3542      C3543   1.403       .  A
C3542      H3547   1.084       .  S
C3543      C3544   1.415       .  A
C3543     Br3551   1.919       .  S
C3544      C3545   1.406       .  A
C3545      C3546   1.401       .  A
C3545      H3548   1.083       .  S
C3546     Br3552   1.919       .  S
C3553      C3554   1.412       .  A
C3553      C3558   1.406       .  A
C3554      C3555   1.403       .  A
C3554     Br3570   1.918       .  S
C3555      C3556   1.403       .  A
C3555      H3559   1.084       .  S
C3556      C3560   1.479       .  S
C3556      C3557   1.406       .  A
C3557      C3558   1.398       .  A
C3557     Br3569   1.919       .  S
C3558      H3561   1.084       .  S
C3560      C3562   1.398       .  A
C3560      C3566   1.406       .  A
C3562      C3563   1.397       .  A
C3562      H3567   1.084       .  S
C3563      C3564   1.419       .  A
C3563     Br3571   1.921       .  S
C3564      C3565   1.412       .  A
C3565      C3566   1.403       .  A
C3565      H3568   1.083       .  S
C3566     Br3572   1.918       .  S
C3573      C3574   1.414       .  A
C3573      C3578   1.406       .  A
C3574      C3575   1.408       .  A
C3574     Br3590   1.919       .  S
C3575      C3576   1.405       .  A
C3575      H3579   1.083       .  S
C3576      C3580   1.485   1_655  S
C3576      C3577   1.407       .  A
C3577      C3578   1.398       .  A
C3577     Br3589   1.920       .  S
C3578      H3581   1.084       .  S
C3580      C3582   1.403       .  A
C3580      C3586   1.407       .  A
C3582      C3583   1.404       .  A
C3582      H3587   1.083       .  S
C3583      C3584   1.413       .  A
C3583     Br3591   1.920       .  S
C3584      C3585   1.408       .  A
C3585      C3586   1.402       .  A
C3585      H3588   1.084       .  S
C3586     Br3592   1.918       .  S
C3593      C3594   1.415       .  A
C3593      C3598   1.408       .  A
C3594      C3595   1.399       .  A
C3594     Br3610   1.920       .  S
C3595      C3596   1.402       .  A
C3595      H3599   1.084       .  S
C3596      C3600   1.480       .  S
C3596      C3597   1.407       .  A
C3597      C3598   1.401       .  A
C3597     Br3609   1.918       .  S
C3598      H3601   1.083       .  S
C3600      C3602   1.403       .  A
C3600      C3606   1.407       .  A
C3602      C3603   1.405       .  A
C3602      H3607   1.083       .  S
C3603      C3604   1.416       .  A
C3603     Br3611   1.920       .  S
C3604      C3605   1.405       .  A
C3605      C3606   1.395       .  A
C3605      H3608   1.084       .  S
C3606     Br3612   1.921       .  S
C3613      C3614   1.411       .  A
C3613      C3618   1.405       .  A
C3614      C3615   1.394       .  A
C3614     Br3630   1.919       .  S
C3615      C3616   1.398       .  A
C3615      H3619   1.084       .  S
C3616      C3620   1.474       .  S
C3616      C3617   1.408       .  A
C3617      C3618   1.401       .  A
C3617     Br3629   1.918       .  S
C3618      H3621   1.084       .  S
C3620      C3622   1.397       .  A
C3620      C3626   1.408       .  A
C3622      C3623   1.395       .  A
C3622      H3627   1.084       .  S
C3623      C3624   1.416       .  A
C3623     Br3631   1.921       .  S
C3624      C3625   1.404       .  A
C3625      C3626   1.401       .  A
C3625      H3628   1.083       .  S
C3626     Br3632   1.918       .  S
C3633      C3634   1.411       .  A
C3633      C3638   1.403       .  A
C3634      C3635   1.398       .  A
C3634     Br3650   1.920       .  S
C3635      C3636   1.400       .  A
C3635      H3639   1.084       .  S
C3636      C3640   1.474       .  S
C3636      C3637   1.408       .  A
C3637      C3638   1.399       .  A
C3637     Br3649   1.918       .  S
C3638      H3641   1.084       .  S
C3640      C3642   1.401       .  A
C3640      C3646   1.401       .  A
C3642      C3643   1.403       .  A
C3642      H3647   1.084       .  S
C3643      C3644   1.418       .  A
C3643     Br3651   1.920       .  S
C3644      C3645   1.412       .  A
C3645      C3646   1.395       .  A
C3645      H3648   1.083       .  S
C3646     Br3652   1.920       .  S
C3653      C3654   1.415       .  A
C3653      C3658   1.406       .  A
C3654      C3655   1.405       .  A
C3654     Br3670   1.920       .  S
C3655      C3656   1.406       .  A
C3655      H3659   1.083       .  S
C3656      C3660   1.494       .  S
C3656      C3657   1.410       .  A
C3657      C3658   1.402       .  A
C3657     Br3669   1.918       .  S
C3658      H3661   1.083       .  S
C3660      C3662   1.405       .  A
C3660      C3666   1.410       .  A
C3662      C3663   1.405       .  A
C3662      H3667   1.083       .  S
C3663      C3664   1.417       .  A
C3663     Br3671   1.920       .  S
C3664      C3665   1.407       .  A
C3665      C3666   1.403       .  A
C3665      H3668   1.083       .  S
C3666     Br3672   1.918       .  S
C3673      C3674   1.413       .  A
C3673      C3678   1.408       .  A
C3674      C3675   1.406       .  A
C3674     Br3690   1.917       .  S
C3675      C3676   1.404       .  A
C3675      H3679   1.083       .  S
C3676      C3680   1.481       .  S
C3676      C3677   1.406       .  A
C3677      C3678   1.397       .  A
C3677     Br3689   1.920       .  S
C3678      H3681   1.083       .  S
C3680      C3682   1.403       .  A
C3680      C3686   1.407       .  A
C3682      C3683   1.403       .  A
C3682      H3687   1.083       .  S
C3683      C3684   1.413       .  A
C3683     Br3691   1.921       .  S
C3684      C3685   1.405       .  A
C3685      C3686   1.400       .  A
C3685      H3688   1.084       .  S
C3686     Br3692   1.917       .  S
C3693      C3694   1.417       .  A
C3693      C3698   1.410       .  A
C3694      C3695   1.403       .  A
C3694     Br3710   1.922       .  S
C3695      C3696   1.403       .  A
C3695      H3699   1.084       .  S
C3696      C3700   1.488   1_655  S
C3696      C3697   1.407       .  A
C3697      C3698   1.403       .  A
C3697     Br3709   1.918       .  S
C3698      H3701   1.083       .  S
C3700      C3702   1.405       .  A
C3700      C3706   1.407       .  A
C3702      C3703   1.407       .  A
C3702      H3707   1.083       .  S
C3703      C3704   1.415       .  A
C3703     Br3711   1.918       .  S
C3704      C3705   1.407       .  A
C3705      C3706   1.399       .  A
C3705      H3708   1.084       .  S
C3706     Br3712   1.920   1_455  S
C3713      C3714   1.410       .  A
C3713      C3718   1.404       .  A
C3714      C3715   1.398       .  A
C3714     Br3730   1.920       .  S
C3715      C3716   1.401       .  A
C3715      H3719   1.084       .  S
C3716      C3720   1.478   1_565  S
C3716      C3717   1.409       .  A
C3717      C3718   1.402       .  A
C3717     Br3729   1.918       .  S
C3718      H3721   1.083       .  S
C3720      C3722   1.403       .  A
C3720      C3726   1.405       .  A
C3722      C3723   1.402       .  A
C3722      H3727   1.083       .  S
C3723      C3724   1.413       .  A
C3723     Br3731   1.918       .  S
C3724      C3725   1.406       .  A
C3725      C3726   1.396       .  A
C3725      H3728   1.084       .  S
C3726     Br3732   1.918       .  S
C3733      C3734   1.416       .  A
C3733      C3738   1.411       .  A
C3734      C3735   1.399       .  A
C3734     Br3750   1.917       .  S
C3735      C3736   1.400       .  A
C3735      H3739   1.084       .  S
C3736      C3740   1.486       .  S
C3736      C3737   1.408       .  A
C3737      C3738   1.407       .  A
C3737     Br3749   1.917       .  S
C3738      H3741   1.083       .  S
C3740      C3742   1.402       .  A
C3740      C3746   1.408       .  A
C3742      C3743   1.403       .  A
C3742      H3747   1.084       .  S
C3743      C3744   1.416       .  A
C3743     Br3751   1.919       .  S
C3744      C3745   1.406       .  A
C3745      C3746   1.402       .  A
C3745      H3748   1.083       .  S
C3746     Br3752   1.916       .  S
C3753      C3754   1.412       .  A
C3753      C3758   1.405       .  A
C3754      C3755   1.405       .  A
C3754     Br3770   1.919       .  S
C3755      C3756   1.408       .  A
C3755      H3759   1.083       .  S
C3756      C3760   1.497   1_655  S
C3756      C3757   1.413       .  A
C3757      C3758   1.401       .  A
C3757     Br3769   1.919       .  S
C3758      H3761   1.084       .  S
C3760      C3762   1.406   1_554  A
C3760      C3766   1.410       .  A
C3762      C3763   1.408       .  A
C3762      H3767   1.083       .  S
C3763      C3764   1.420   1_556  A
C3763     Br3771   1.915       .  S
C3764      C3765   1.413       .  A
C3765      C3766   1.399       .  A
C3765      H3768   1.083       .  S
C3766     Br3772   1.922       .  S
C3773      C3774   1.410       .  A
C3773      C3778   1.404       .  A
C3774      C3775   1.400       .  A
C3774     Br3790   1.919       .  S
C3775      C3776   1.405       .  A
C3775      H3779   1.083       .  S
C3776      C3780   1.481       .  S
C3776      C3777   1.409       .  A
C3777      C3778   1.397       .  A
C3777     Br3789   1.920       .  S
C3778      H3781   1.084       .  S
C3780      C3782   1.404       .  A
C3780      C3786   1.411       .  A
C3782      C3783   1.398       .  A
C3782      H3787   1.083       .  S
C3783      C3784   1.407       .  A
C3783     Br3791   1.919       .  S
C3784      C3785   1.402       .  A
C3785      C3786   1.399       .  A
C3785      H3788   1.084       .  S
C3786     Br3792   1.920       .  S
C3793      C3794   1.411       .  A
C3793      C3798   1.405       .  A
C3794      C3795   1.399       .  A
C3794     Br3810   1.921       .  S
C3795      C3796   1.404       .  A
C3795      H3799   1.084       .  S
C3796      C3800   1.475       .  S
C3796      C3797   1.406       .  A
C3797      C3798   1.394       .  A
C3797     Br3809   1.920       .  S
C3798      H3801   1.084       .  S
C3800      C3802   1.402       .  A
C3800      C3806   1.404       .  A
C3802      C3803   1.400       .  A
C3802      H3807   1.084       .  S
C3803      C3804   1.415       .  A
C3803     Br3811   1.919       .  S
C3804      C3805   1.410       .  A
C3805      C3806   1.395       .  A
C3805      H3808   1.083       .  S
C3806     Br3812   1.921       .  S
C3813      C3814   1.416       .  A
C3813      C3818   1.408       .  A
C3814      C3815   1.403       .  A
C3814     Br3830   1.919       .  S
C3815      C3816   1.403       .  A
C3815      H3819   1.083       .  S
C3816      C3820   1.486   1_564  S
C3816      C3817   1.408       .  A
C3817      C3818   1.400       .  A
C3817     Br3829   1.919   1_554  S
C3818      H3821   1.084       .  S
C3820      C3822   1.402       .  A
C3820      C3826   1.411   1_556  A
C3822      C3823   1.400       .  A
C3822      H3827   1.084       .  S
C3823      C3824   1.413       .  A
C3823     Br3831   1.919       .  S
C3824      C3825   1.404   1_556  A
C3825      C3826   1.404       .  A
C3825      H3828   1.083       .  S
C3826     Br3832   1.918       .  S
C3833      C3834   1.413       .  A
C3833      C3838   1.407       .  A
C3834      C3835   1.411       .  A
C3834     Br3850   1.918       .  S
C3835      C3836   1.408       .  A
C3835      H3839   1.083       .  S
C3836      C3840   1.489       .  S
C3836      C3837   1.406       .  A
C3837      C3838   1.396       .  A
C3837     Br3849   1.921       .  S
C3838      H3841   1.083       .  S
C3840      C3842   1.402       .  A
C3840      C3846   1.409       .  A
C3842      C3843   1.405       .  A
C3842      H3847   1.083       .  S
C3843      C3844   1.418       .  A
C3843     Br3851   1.919       .  S
C3844      C3845   1.407       .  A
C3845      C3846   1.402       .  A
C3845      H3848   1.083       .  S
C3846     Br3852   1.918       .  S
C3853      C3854   1.418       .  A
C3853      C3858   1.408       .  A
C3854      C3855   1.401       .  A
C3854     Br3870   1.923       .  S
C3855      C3856   1.403       .  A
C3855      H3859   1.084       .  S
C3856      C3860   1.485       .  S
C3856      C3857   1.408       .  A
C3857      C3858   1.400       .  A
C3857     Br3869   1.919       .  S
C3858      H3861   1.083       .  S
C3860      C3862   1.406       .  A
C3860      C3866   1.408       .  A
C3862      C3863   1.406       .  A
C3862      H3867   1.083       .  S
C3863      C3864   1.414       .  A
C3863     Br3871   1.919       .  S
C3864      C3865   1.406       .  A
C3865      C3866   1.395       .  A
C3865      H3868   1.084       .  S
C3866     Br3872   1.922       .  S
C3873      C3874   1.411       .  A
C3873      C3878   1.403       .  A
C3874      C3875   1.406       .  A
C3874     Br3890   1.920       .  S
C3875      C3876   1.408       .  A
C3875      H3879   1.083       .  S
C3876      C3880   1.493   1_565  S
C3876      C3877   1.411       .  A
C3877      C3878   1.400       .  A
C3877     Br3889   1.918       .  S
C3878      H3881   1.084       .  S
C3880      C3882   1.406       .  A
C3880      C3886   1.412       .  A
C3882      C3883   1.404       .  A
C3882      H3887   1.083       .  S
C3883      C3884   1.412       .  A
C3883     Br3891   1.920       .  S
C3884      C3885   1.405       .  A
C3885      C3886   1.403       .  A
C3885      H3888   1.083       .  S
C3886     Br3892   1.919       .  S
C3893      C3894   1.421       .  A
C3893      C3898   1.411       .  A
C3894      C3895   1.401       .  A
C3894     Br3910   1.923       .  S
C3895      C3896   1.400       .  A
C3895      H3899   1.084       .  S
C3896      C3900   1.483       .  S
C3896      C3897   1.405       .  A
C3897      C3898   1.401       .  A
C3897     Br3909   1.917       .  S
C3898      H3901   1.083       .  S
C3900      C3902   1.404       .  A
C3900      C3906   1.407       .  A
C3902      C3903   1.404       .  A
C3902      H3907   1.083       .  S
C3903      C3904   1.413       .  A
C3903     Br3911   1.920       .  S
C3904      C3905   1.405       .  A
C3905      C3906   1.399       .  A
C3905      H3908   1.084       .  S
C3906     Br3912   1.919       .  S
C3913      C3914   1.414       .  A
C3913      C3918   1.407       .  A
C3914      C3915   1.401       .  A
C3914     Br3930   1.920       .  S
C3915      C3916   1.404       .  A
C3915      H3919   1.084       .  S
C3916      C3920   1.484       .  S
C3916      C3917   1.408       .  A
C3917      C3918   1.400       .  A
C3917     Br3929   1.919       .  S
C3918      H3921   1.083       .  S
C3920      C3922   1.405       .  A
C3920      C3926   1.408       .  A
C3922      C3923   1.406       .  A
C3922      H3927   1.083       .  S
C3923      C3924   1.416       .  A
C3923     Br3931   1.921       .  S
C3924      C3925   1.406       .  A
C3925      C3926   1.394       .  A
C3925      H3928   1.084       .  S
C3926     Br3932   1.921       .  S
C3933      C3934   1.417       .  A
C3933      C3938   1.409       .  A
C3934      C3935   1.401       .  A
C3934     Br3950   1.920       .  S
C3935      C3936   1.401       .  A
C3935      H3939   1.084       .  S
C3936      C3940   1.484       .  S
C3936      C3937   1.407       .  A
C3937      C3938   1.403       .  A
C3937     Br3949   1.918       .  S
C3938      H3941   1.083       .  S
C3940      C3942   1.407       .  A
C3940      C3946   1.407       .  A
C3942      C3943   1.408       .  A
C3942      H3947   1.083       .  S
C3943      C3944   1.411       .  A
C3943     Br3951   1.919       .  S
C3944      C3945   1.404       .  A
C3945      C3946   1.394       .  A
C3945      H3948   1.084       .  S
C3946     Br3952   1.920       .  S
C3953      C3954   1.414       .  A
C3953      C3958   1.408       .  A
C3954      C3955   1.402       .  A
C3954     Br3970   1.920       .  S
C3955      C3956   1.402       .  A
C3955      H3959   1.084       .  S
C3956      C3960   1.471       .  S
C3956      C3957   1.402       .  A
C3957      C3958   1.393       .  A
C3957     Br3969   1.920       .  S
C3958      H3961   1.084       .  S
C3960      C3962   1.400       .  A
C3960      C3966   1.407       .  A
C3962      C3963   1.395   1_556  A
C3962      H3967   1.084       .  S
C3963      C3964   1.408       .  A
C3963     Br3971   1.919       .  S
C3964      C3965   1.403       .  A
C3965      C3966   1.399   1_554  A
C3965      H3968   1.084       .  S
C3966     Br3972   1.918       .  S
C3973      C3974   1.417       .  A
C3973      C3978   1.406       .  A
C3974      C3975   1.395       .  A
C3974     Br3990   1.919       .  S
C3975      C3976   1.396       .  A
C3975      H3979   1.084       .  S
C3976      C3980   1.472       .  S
C3976      C3977   1.407       .  A
C3977      C3978   1.402       .  A
C3977     Br3989   1.917       .  S
C3978      H3981   1.083       .  S
C3980      C3982   1.399       .  A
C3980      C3986   1.407       .  A
C3982      C3983   1.397       .  A
C3982      H3987   1.084       .  S
C3983      C3984   1.413       .  A
C3983     Br3991   1.920       .  S
C3984      C3985   1.403       .  A
C3985      C3986   1.399       .  A
C3985      H3988   1.083       .  S
C3986     Br3992   1.918       .  S
C3993      C3994   1.414       .  A
C3993      C3998   1.406       .  A
C3994      C3995   1.401       .  A
C3994     Br4010   1.918       .  S
C3995      C3996   1.402       .  A
C3995      H3999   1.084       .  S
C3996      C4000   1.487   1_565  S
C3996      C3997   1.410       .  A
C3997      C3998   1.405       .  A
C3997     Br4009   1.918       .  S
C3998      H4001   1.083       .  S
C4000      C4002   1.403       .  A
C4000      C4006   1.407       .  A
C4002      C4003   1.406       .  A
C4002      H4007   1.083       .  S
C4003      C4004   1.419       .  A
C4003     Br4011   1.919       .  S
C4004      C4005   1.408       .  A
C4005      C4006   1.400       .  A
C4005      H4008   1.083       .  S
C4006     Br4012   1.918       .  S
C4013      C4014   1.411       .  A
C4013      C4018   1.404       .  A
C4014      C4015   1.403       .  A
C4014     Br4030   1.920       .  S
C4015      C4016   1.403       .  A
C4015      H4019   1.083       .  S
C4016      C4020   1.479       .  S
C4016      C4017   1.406       .  A
C4017      C4018   1.399       .  A
C4017     Br4029   1.918       .  S
C4018      H4021   1.084       .  S
C4020      C4022   1.400       .  A
C4020      C4026   1.405       .  A
C4022      C4023   1.400       .  A
C4022      H4027   1.084       .  S
C4023      C4024   1.418       .  A
C4023     Br4031   1.921       .  S
C4024      C4025   1.410       .  A
C4025      C4026   1.401       .  A
C4025      H4028   1.083       .  S
C4026     Br4032   1.918       .  S
