geometry optimzed in LAMMPS
_audit_creation_date              2020-12-01 
_audit_creation_method            'lammps2cif' 
_symmetry_space_group_name_H-M    'P1' 
_symmetry_Int_Tables_number       1 
_symmetry_cell_setting            triclinic 
loop_ 
_symmetry_equiv_pos_as_xyz 
  x,y,z 
_cell_length_a                    34.71744855 
_cell_length_b                    34.91297301356296 
_cell_length_c                    34.77657779857079 
_cell_angle_alpha                 89.76362309707119 
_cell_angle_beta                  89.78866907496673 
_cell_angle_gamma                 89.9487377332213 
loop_ 
_atom_site_label 
_atom_site_type_symbol 
_atom_site_fract_x 
_atom_site_fract_y 
_atom_site_fract_z 
_atom_site_charge 
O1          O  0.18154837  0.02737542  0.52858324    -0.85500
O2          O  0.16092537  0.08800400  0.48298283    -0.82600
C3          C  0.16108069  0.11245541  0.45623290     0.97900
O4          O  0.18030310  0.10631970  0.42584276    -0.82600
O5          O  0.25551138  0.10989098  0.45242742    -0.85200
C6          C  0.28557824  0.10038529  0.47049743     1.02500
O7          O  0.29342090  0.06549786  0.47656451    -0.78000
O8          O  0.24076495  0.04840192  0.53397147    -0.78200
C9          C  0.20828438  0.04125460  0.54860433     1.02400
O10         O  0.17743190  0.97804012  0.46401035    -0.85500
O11         O  0.14894384  0.03655590  0.42009182    -0.82600
C12         C  0.16565665  0.02840080  0.38892590     0.98000
O13         O  0.20041275  0.03747619  0.38359986    -0.82600
O14         O  0.27588478  0.04632050  0.40366312    -0.85200
C15         C  0.28606919  0.01206309  0.40989704     1.02400
O16         O  0.27560762  0.99454501  0.43994946    -0.78000
O17         O  0.22822655  0.97363326  0.50082997    -0.78200
C18         C  0.19898345  0.95833000  0.48546466     1.02400
Cr19       Cr  0.17065871  0.03328333  0.47289336     1.93700
Cr20       Cr  0.22747176  0.07299481  0.41926215     1.93200
Cr21       Cr  0.25676210  0.02204428  0.48577568     1.39100
O22         O  0.21841238  0.04273397  0.45926728    -1.23300
O23         O  0.93716512  0.99253763  0.34470852    -0.85500
O24         O  0.91282026  0.92099649  0.36772617    -0.82600
C25         C  0.88075830  0.92020407  0.35066329     0.97900
O26         O  0.87960716  0.91670227  0.31466282    -0.82600
O27         O  0.90420144  0.91912028  0.23894324    -0.85200
C28         C  0.90288089  0.95423134  0.22996623     1.02500
O29         O  0.92653905  0.97755235  0.24390269    -0.78000
O30         O  0.97391445  0.01114940  0.29643241    -0.78200
C31         C  0.95249393  0.01882016  0.32502980     1.02400
O32         O  0.01507315  0.96637141  0.34196396    -0.85500
O33         O  0.98960269  0.89372057  0.35334435    -0.82600
C34         C  0.97185361  0.86261070  0.34966878     0.98000
O35         O  0.94016689  0.86135366  0.33173120    -0.82600
O36         O  0.96692387  0.86997832  0.25919366    -0.85200
C37         C  0.98422372  0.88488005  0.23107703     1.02400
O38         O  0.98384321  0.92086361  0.22594973    -0.78000
O39         O  0.02986253  0.95202338  0.28251258    -0.78200
C40         C  0.03986007  0.96246982  0.31559529     1.02400
Cr41       Cr  0.96298641  0.94265792  0.34853995     1.93700
Cr42       Cr  0.92475701  0.89473479  0.28698416     1.93200
Cr43       Cr  0.97681404  0.96307959  0.26457067     1.39100
O44         O  0.95484830  0.93356204  0.29975022    -1.23300
O45         O  0.01886530  0.23926322  0.46784765    -0.85500
O46         O  0.96130509  0.29121992  0.44734428    -0.82600
C47         C  0.95578648  0.28123516  0.41294216     0.97900
O48         O  0.93957597  0.24980781  0.40564501    -0.82600
O49         O  0.91325794  0.17572363  0.41555824    -0.85200
C50         C  0.94244118  0.15416047  0.41342498     1.02500
O51         O  0.96849394  0.15557350  0.43849256    -0.78000
O52         O  0.01329349  0.18336075  0.49640225    -0.78200
C53         C  0.03322482  0.20749799  0.47797332     1.02400
O54         O  0.98594096  0.23418625  0.54405906    -0.85500
O55         O  0.92410508  0.27784243  0.51937839    -0.82600
C56         C  0.89356110  0.28561328  0.50127158     0.98000
O57         O  0.88877344  0.27428846  0.46709249    -0.82600
O58         O  0.86772635  0.20029218  0.47954869    -0.85200
C59         C  0.87223893  0.16662390  0.49175426     1.02400
O60         O  0.90460006  0.15028694  0.49007900    -0.78000
O61         O  0.94720444  0.18501747  0.54590871    -0.78200
C62         C  0.96966385  0.20759822  0.56287347     1.02400
Cr63       Cr  0.97063596  0.25790953  0.49337557     1.93700
Cr64       Cr  0.90537707  0.22471132  0.44412770     1.93200
Cr65       Cr  0.95737344  0.17195659  0.49159860     1.39100
O66         O  0.94428452  0.21813059  0.47630134    -1.23300
O67         O  0.05120486  0.97783251  0.75048366    -0.85500
O68         O  0.07050818  0.03157671  0.80645676    -0.82600
C69         C  0.10530791  0.03887616  0.79859368     0.97900
O70         O  0.11430319  0.05734114  0.76866253    -0.82600
O71         O  0.10882813  0.08915234  0.69616586    -0.85200
C72         C  0.11425337  0.05985478  0.67556673     1.02500
O73         O  0.08868906  0.03440147  0.67340228    -0.78000
O74         O  0.02842095  0.98804511  0.69252608    -0.78200
C75         C  0.04225297  0.96567057  0.71748065     1.02400
O76         O  0.97690512  0.01243361  0.74346596    -0.85500
O77         O  0.99893583  0.07014059  0.79342267    -0.82600
C78         C  0.01751705  0.09873218  0.80549599     0.98000
O79         O  0.05191156  0.10420907  0.79466417    -0.82600
O80         O  0.04112411  0.13086809  0.72136407    -0.85200
C81         C  0.03106805  0.12866493  0.68669268     1.02400
O82         O  0.03708528  0.09850195  0.66770295    -0.78000
O83         O  0.97865521  0.05253011  0.69496608    -0.78200
C84         C  0.96036939  0.02888254  0.71559475     1.02400
Cr85       Cr  0.02589349  0.02524511  0.77086880     1.93700
Cr86       Cr  0.07681407  0.09258466  0.74441020     1.93200
Cr87       Cr  0.03416148  0.04427258  0.68557965     1.39100
O88         O  0.04555704  0.05404551  0.73365746    -1.23300
O89         O  0.75544950  0.94320448  0.49254237    -0.85500
O90         O  0.70367600  0.92898457  0.55207650    -0.82600
C91         C  0.71122391  0.89440459  0.55956934     0.97900
O92         O  0.74173418  0.88549099  0.57705241    -0.82600
O93         O  0.81741506  0.88904072  0.60010597    -0.85200
C94         C  0.83627807  0.88201427  0.56970961     1.02500
O95         O  0.83692669  0.90615350  0.54251817    -0.78000
O96         O  0.81423294  0.96576369  0.49533982    -0.78200
C97         C  0.78769723  0.94960765  0.47681268     1.02400
O98         O  0.76743277  0.01925496  0.52288441    -0.85500
O99         O  0.72209087  0.00090210  0.58560418    -0.82600
C100        C  0.71356346  0.98501103  0.61720967     0.98000
O101        O  0.72387453  0.95094364  0.62432346    -0.82600
O102        O  0.79996339  0.95847460  0.64157454    -0.85200
C103        C  0.83470463  0.96671664  0.63530055     1.02400
O104        O  0.85013022  0.95965136  0.60322207    -0.78000
O105        O  0.81903577  0.01711886  0.55886973    -0.78200
C106        C  0.79552108  0.03596120  0.53862758     1.02400
Cr107      Cr  0.74004378  0.97154907  0.54020768     1.93700
Cr108      Cr  0.77121356  0.92303270  0.60765274     1.93200
Cr109      Cr  0.82659348  0.96144407  0.55112207     1.39100
O110        O  0.77921894  0.95201791  0.56645025    -1.23300
O111        O  0.98106493  0.80704932  0.54159651    -0.85500
O112        O  0.02593844  0.83212223  0.60162238    -0.82600
C113        C  0.05243452  0.83279887  0.62645433     0.97900
O114        O  0.08262297  0.81271352  0.62199868    -0.82600
O115        O  0.06232116  0.73596993  0.62857594    -0.85200
C116        C  0.04439135  0.70551914  0.62061417     1.02500
O117        O  0.03446754  0.69855863  0.58659846    -0.78000
O118        O  0.97559127  0.75069746  0.56882766    -0.78200
C119        C  0.96073621  0.78209795  0.55809812     1.02400
O120        O  0.04608787  0.80794319  0.49233362    -0.85500
O121        O  0.08762258  0.84335110  0.54976701    -0.82600
C122        C  0.12000840  0.82870205  0.54329866     0.98000
O123        O  0.12670318  0.79454535  0.55309680    -0.82600
O124        O  0.11010606  0.71848952  0.56267716    -0.85200
C125        C  0.10162723  0.70520336  0.52994380     1.02400
O126        O  0.06954126  0.71245796  0.51449960    -0.78000
O127        O  0.00849949  0.75754328  0.49334251    -0.78200
C128        C  0.02491649  0.78421287  0.47508155     1.02400
Cr129      Cr  0.03637789  0.81894912  0.54733714     1.93700
Cr130      Cr  0.09220600  0.76585224  0.58950809     1.93200
Cr131      Cr  0.02415526  0.73284572  0.54248624     1.39100
O132        O  0.05099686  0.77234543  0.56008973    -1.23300
O133        O  0.51525348  0.17920551  0.04901317    -0.85500
O134        O  0.46797202  0.15982131  0.10939876    -0.82600
C135        C  0.44014052  0.15967996  0.13285692     0.97900
O136        O  0.40918843  0.17726137  0.12477117    -0.82600
O137        O  0.43037942  0.25343661  0.12819399    -0.85200
C138        C  0.44877652  0.28352083  0.11957398     1.02500
O139        O  0.45966856  0.28977330  0.08537520    -0.78000
O140        O  0.51898190  0.23730717  0.07186555    -0.78200
C141        C  0.53438224  0.20525975  0.06484324     1.02400
O142        O  0.45238781  0.17353295  0.99791202    -0.85500
O143        O  0.40794667  0.14399245  0.05681723    -0.82600
C144        C  0.37719114  0.15863985  0.04473470     0.98000
O145        O  0.36967010  0.19318579  0.05212054    -0.82600
O146        O  0.38615341  0.26960332  0.06052161    -0.85200
C147        C  0.39536468  0.28138976  0.02728071     1.02400
O148        O  0.42725017  0.27219798  0.01233066    -0.78000
O149        O  0.48870092  0.22492240  0.99520376    -0.78200
C150        C  0.47363393  0.19613672  0.97898539     1.02400
Cr151      Cr  0.45967809  0.16761123  0.05393235     1.93700
Cr152      Cr  0.40187434  0.22277451  0.08947111     1.93200
Cr153      Cr  0.47162394  0.25325328  0.04275472     1.39100
O154        O  0.44431357  0.21485683  0.06209013    -1.23300
O155        O  0.32019640  0.96585981  0.02259462    -0.85500
O156        O  0.33798037  0.90186693  0.98035561    -0.82600
C157        C  0.33726968  0.87669173  0.95444961     0.97900
O158        O  0.31782472  0.88222877  0.92416478    -0.82600
O159        O  0.24311017  0.88040341  0.95079939    -0.85200
C160        C  0.21348257  0.89049363  0.96929081     1.02500
O161        O  0.20699084  0.92545823  0.97641512    -0.78000
O162        O  0.26125740  0.94532400  0.03152219    -0.78200
C163        C  0.29395460  0.95397004  0.04462384     1.02400
O164        O  0.32330209  0.01105017  0.95529198    -0.85500
O165        O  0.35055077  0.94939119  0.91463975    -0.82600
C166        C  0.33382232  0.95759196  0.88364670     0.98000
O167        O  0.29858240  0.95030183  0.87950173    -0.82600
O168        O  0.22312100  0.94264050  0.90080722    -0.85200
C169        C  0.21301147  0.97696243  0.90629254     1.02400
O170        O  0.22372914  0.99492060  0.93574316    -0.78000
O171        O  0.27317719  0.01788769  0.99306993    -0.78200
C172        C  0.30261245  0.03193548  0.97649866     1.02400
Cr173      Cr  0.32948909  0.95625205  0.96733694     1.93700
Cr174      Cr  0.27134263  0.91605073  0.91662176     1.93200
Cr175      Cr  0.24388849  0.96916030  0.98213729     1.39100
O176        O  0.28132541  0.94708142  0.95545971    -1.23300
O177        O  0.44783031  0.01647214  0.25726699    -0.85500
O178        O  0.42838336  0.95878562  0.30890681    -0.82600
C179        C  0.39361796  0.95296674  0.30024667     0.97900
O180        O  0.38493833  0.93695267  0.26901285    -0.82600
O181        O  0.39157467  0.91126197  0.19433062    -0.85200
C182        C  0.38723839  0.94131575  0.17439985     1.02500
O183        O  0.41268088  0.96710573  0.17464149    -0.78000
O184        O  0.47275629  0.01133892  0.19943070    -0.78200
C185        C  0.45717030  0.03127499  0.22538861     1.02400
O186        O  0.52280216  0.98269709  0.24861160    -0.85500
O187        O  0.49975423  0.92144176  0.29351060    -0.82600
C188        C  0.48072553  0.89228186  0.30366227     0.98000
O189        O  0.44677416  0.88731446  0.29159186    -0.82600
O190        O  0.45795361  0.86676597  0.21624879    -0.85200
C191        C  0.46844251  0.87169529  0.18183696     1.02400
O192        O  0.46407902  0.90367909  0.16543936    -0.78000
O193        O  0.52217830  0.94599861  0.19775775    -0.78200
C194        C  0.54034958  0.96679083  0.22106700     1.02400
Cr195      Cr  0.47324517  0.96792741  0.27420523     1.93700
Cr196      Cr  0.42254815  0.90343229  0.24228834     1.93200
Cr197      Cr  0.46695322  0.95597962  0.18771799     1.39100
O198        O  0.45424668  0.94235970  0.23471926    -1.23300
O199        O  0.73871629  0.04596282  0.00109301    -0.85500
O200        O  0.79252799  0.06432265  0.05657224    -0.82600
C201        C  0.78537082  0.09898212  0.06426608     0.97900
O202        O  0.75516837  0.10814210  0.08237611    -0.82600
O203        O  0.68118000  0.10292422  0.11224858    -0.85200
C204        C  0.66109108  0.10949801  0.08266786     1.02500
O205        O  0.66005061  0.08533199  0.05580683    -0.78000
O206        O  0.67964245  0.02500166  0.00908584    -0.78200
C207        C  0.70571494  0.03871459  0.98785274     1.02400
O208        O  0.72926615  0.97182990  0.03569834    -0.85500
O209        O  0.77788494  0.99318275  0.09478209    -0.82600
C210        C  0.79031431  0.01185349  0.12313854     0.98000
O211        O  0.77891063  0.04568739  0.12906557    -0.82600
O212        O  0.70456148  0.03444493  0.15306204    -0.85200
C213        C  0.66965647  0.02549390  0.14950948     1.02400
O214        O  0.65164163  0.03292141  0.11894960    -0.78000
O215        O  0.67869897  0.97471803  0.07338325    -0.78200
C216        C  0.70078383  0.95572234  0.05172235     1.02400
Cr217      Cr  0.75686340  0.02032008  0.04916633     1.93700
Cr218      Cr  0.72914672  0.07062755  0.11628462     1.93200
Cr219      Cr  0.67097164  0.03033293  0.06521146     1.39100
O220        O  0.71905663  0.04040131  0.07680034    -1.23300
O221        O  0.48276146  0.75466387  0.96295700    -0.85500
O222        O  0.53993142  0.70227960  0.94610224    -0.82600
C223        C  0.54842493  0.70996321  0.91148633     0.97900
O224        O  0.56906792  0.73862138  0.90326820    -0.82600
O225        O  0.59421184  0.81347876  0.90859081    -0.85200
C226        C  0.56412653  0.83276953  0.90134186     1.02500
O227        O  0.53645281  0.83321602  0.92501202    -0.78000
O228        O  0.48861228  0.81295321  0.98518519    -0.78200
C229        C  0.46817960  0.78669018  0.97123164     1.02400
O230        O  0.51456298  0.76492489  0.03867081    -0.85500
O231        O  0.57488778  0.71751666  0.01923243    -0.82600
C232        C  0.60631715  0.70807852  0.00366827     0.98000
O233        O  0.61422385  0.71831186  0.96960797    -0.82600
O234        O  0.63402343  0.79338078  0.97919195    -0.85200
C235        C  0.62856740  0.82803402  0.98748307     1.02400
O236        O  0.59760572  0.84448777  0.97836272    -0.78000
O237        O  0.55168346  0.81567880  0.03669154    -0.78200
C238        C  0.52972444  0.79339166  0.05527639     1.02400
Cr239      Cr  0.53032157  0.73752313  0.99017545     1.93700
Cr240      Cr  0.59978163  0.76653155  0.94220639     1.93200
Cr241      Cr  0.54467676  0.82306994  0.98048085     1.39100
O242        O  0.55823953  0.77554265  0.97087968    -1.23300
O243        O  0.53042954  0.98003063  0.83166523    -0.85500
O244        O  0.58929967  0.02630480  0.85624745    -0.82600
C245        C  0.61340159  0.05331860  0.85693715     0.97900
O246        O  0.60833244  0.08300508  0.83655796    -0.82600
O247        O  0.61618675  0.05931574  0.76092195    -0.85200
C248        C  0.60820580  0.04288009  0.72970106     1.02500
O249        O  0.57389865  0.03399719  0.72181200    -0.78000
O250        O  0.55612997  0.97555763  0.77418619    -0.78200
C251        C  0.54728942  0.96059981  0.80621563     1.02400
O252        O  0.47913229  0.04366706  0.83307121    -0.85500
O253        O  0.53575874  0.08763612  0.86571222    -0.82600
C254        C  0.53047622  0.11963690  0.84974226     0.98000
O255        O  0.54026574  0.12516810  0.81527481    -0.82600
O256        O  0.55163894  0.10678980  0.73980893    -0.85200
C257        C  0.51823376  0.09961884  0.72733005     1.02400
O258        O  0.50131834  0.06865722  0.73592267    -0.78000
O259        O  0.47982756  0.00704932  0.78210224    -0.78200
C260        C  0.46184375  0.02177581  0.81012595     1.02400
Cr261      Cr  0.53464643  0.03557766  0.84304422     1.93700
Cr262      Cr  0.57695697  0.09036982  0.78862828     1.93200
Cr263      Cr  0.52918933  0.02331936  0.75642975     1.39100
O264        O  0.54694014  0.04988459  0.79593280    -1.23300
O265        O  0.03821698  0.50132426  0.19316449    -0.85500
O266        O  0.10034915  0.45602888  0.17566295    -0.82600
C267        C  0.12470632  0.42927405  0.17649801     0.97900
O268        O  0.11774335  0.39913408  0.19579003    -0.82600
O269        O  0.11817190  0.42565115  0.27074564    -0.85200
C270        C  0.10716829  0.44346073  0.30030722     1.02500
O271        O  0.07188651  0.45008417  0.30640683    -0.78000
O272        O  0.05612342  0.50725061  0.25322738    -0.78200
C273        C  0.05006641  0.52174659  0.22050956     1.02400
O274        O  0.98937869  0.43622116  0.18795541    -0.85500
O275        O  0.04946076  0.39266757  0.16218786    -0.82600
C276        C  0.04068915  0.36172979  0.17893176     0.98000
O277        O  0.04768586  0.35706036  0.21409802    -0.82600
O278        O  0.05364163  0.37696324  0.28953657    -0.85200
C279        C  0.01900679  0.38340151  0.29912090     1.02400
O280        O  0.00168344  0.41293093  0.28724431    -0.78000
O281        O  0.98226264  0.47275149  0.23844738    -0.78200
C282        C  0.96841716  0.45726968  0.20867561     1.02400
Cr283      Cr  0.04499182  0.44558375  0.18323387     1.93700
Cr284      Cr  0.08230735  0.39260488  0.24184149     1.93200
Cr285      Cr  0.02971709  0.45871287  0.26861581     1.39100
O286        O  0.05232985  0.43234553  0.23137249    -1.23300
O287        O  0.00139810  0.31822718  0.95059754    -0.85500
O288        O  0.92956539  0.34249472  0.92992511    -0.82600
C289        C  0.92589297  0.32573641  0.89801622     0.97900
O290        O  0.92188617  0.28997662  0.89665629    -0.82600
O291        O  0.92341426  0.21444717  0.92086392    -0.85200
C292        C  0.95865372  0.20576841  0.91705272     1.02500
O293        O  0.98344120  0.21913230  0.93952844    -0.78000
O294        O  0.02084520  0.26962146  0.98584608    -0.78200
C295        C  0.02820595  0.29796826  0.96401977     1.02400
O296        O  0.97852290  0.31518356  0.02956080    -0.85500
O297        O  0.90447736  0.32952154  0.00741571    -0.82600
C298        C  0.87276309  0.32828321  0.99008711     0.98000
O299        O  0.86952644  0.30917554  0.95926823    -0.82600
O300        O  0.87746202  0.23657263  0.98614763    -0.85200
C301        C  0.89243162  0.20789472  0.00209054     1.02400
O302        O  0.92830449  0.20147211  0.99911515    -0.78000
O303        O  0.96290875  0.25613927  0.04412780    -0.78200
C304        C  0.97482265  0.28860284  0.05402847     1.02400
Cr305      Cr  0.95267081  0.32303584  0.97881936     1.93700
Cr306      Cr  0.90108163  0.26320534  0.94266847     1.93200
Cr307      Cr  0.97159109  0.23893803  0.99064879     1.39100
O308        O  0.94181177  0.27484266  0.97074023    -1.23300
O309        O  0.24883372  0.44175698  0.03121829    -0.85500
O310        O  0.29989679  0.42601574  0.97110258    -0.82600
C311        C  0.29075611  0.39184043  0.96370064     0.97900
O312        O  0.25954568  0.38429341  0.94696618    -0.82600
O313        O  0.18404932  0.39169715  0.92366042    -0.85200
C314        C  0.16419471  0.38583611  0.95363267     1.02500
O315        O  0.16584859  0.40860302  0.98160165    -0.78000
O316        O  0.19077432  0.46636980  0.02851425    -0.78200
C317        C  0.21706337  0.44977601  0.04715515     1.02400
O318        O  0.23868996  0.51820417  0.00144445    -0.85500
O319        O  0.28320354  0.49894586  0.93794767    -0.82600
C320        C  0.29173291  0.48260256  0.90669861     0.98000
O321        O  0.28013447  0.44901608  0.89975694    -0.82600
O322        O  0.20365124  0.45960132  0.88201358    -0.85200
C323        C  0.16871275  0.46743698  0.88822512     1.02400
O324        O  0.15403274  0.46289273  0.92113028    -0.78000
O325        O  0.18697308  0.51878616  0.96556008    -0.78200
C326        C  0.20996586  0.53583172  0.98761343     1.02400
Cr327      Cr  0.26480854  0.46991572  0.98342030     1.93700
Cr328      Cr  0.23160581  0.42323927  0.91623648     1.93200
Cr329      Cr  0.17794163  0.46333175  0.97297452     1.39100
O330        O  0.22482434  0.45226730  0.95735001    -1.23300
O331        O  0.98340852  0.73264404  0.06776233    -0.85500
O332        O  0.03927600  0.78655190  0.08551118    -0.82600
C333        C  0.04695716  0.77993628  0.12042623     0.97900
O334        O  0.06581991  0.75058629  0.13018235    -0.82600
O335        O  0.09232122  0.67606619  0.12824158    -0.85200
C336        C  0.06231374  0.65616979  0.13429550     1.02500
O337        O  0.03566405  0.65572538  0.10977719    -0.78000
O338        O  0.99133889  0.67401467  0.04700511    -0.78200
C339        C  0.96971281  0.70037084  0.05915379     1.02400
O340        O  0.01951856  0.72066839  0.99413838    -0.85500
O341        O  0.07754467  0.77007391  0.01492610    -0.82600
C342        C  0.10741633  0.78100664  0.03212774     0.98000
O343        O  0.11447296  0.77041534  0.06620845    -0.82600
O344        O  0.13555835  0.69541153  0.05900356    -0.85200
C345        C  0.13156387  0.66025972  0.05229257     1.02400
O346        O  0.10032837  0.64358276  0.06015557    -0.78000
O347        O  0.05787251  0.67104868  0.99965082    -0.78200
C348        C  0.03612108  0.69184997  0.97946679     1.02400
Cr349      Cr  0.03208049  0.74979456  0.04230052     1.93700
Cr350      Cr  0.09914245  0.72248620  0.09384275     1.93200
Cr351      Cr  0.04720542  0.66461262  0.05490358     1.39100
O352        O  0.05944902  0.71252099  0.06373790    -1.23300
O353        O  0.96544256  0.46651452  0.78627627    -0.85500
O354        O  0.92116987  0.50906251  0.73817013    -0.82600
C355        C  0.89837002  0.53490741  0.72732992     0.97900
O356        O  0.90210241  0.56915551  0.73898787    -0.82600
O357        O  0.87885373  0.56846703  0.81497974    -0.85200
C358        C  0.87934423  0.56047287  0.85026437     1.02500
O359        O  0.91075312  0.55275075  0.86675261    -0.78000
O360        O  0.92796507  0.48302559  0.83435643    -0.78200
C361        C  0.94121796  0.45765445  0.81230347     1.02400
O362        O  0.02529896  0.52462946  0.77916728    -0.85500
O363        O  0.98193417  0.56296382  0.72461865    -0.82600
C364        C  0.98520065  0.59823920  0.73246342     0.98000
O365        O  0.97004331  0.61156530  0.76237277    -0.82600
O366        O  0.94555072  0.61463616  0.83639011    -0.85200
C367        C  0.97585669  0.60738865  0.85558371     1.02400
O368        O  0.98950353  0.57400104  0.85665686    -0.78000
O369        O  0.00845668  0.50148863  0.83527926    -0.78200
C370        C  0.03424295  0.50968730  0.81088571     1.02400
Cr371      Cr  0.97212934  0.51792091  0.75965239     1.93700
Cr372      Cr  0.92597530  0.58777905  0.78871067     1.93200
Cr373      Cr  0.95857390  0.52895258  0.84490503     1.39100
O374        O  0.95211270  0.54507653  0.79753425    -1.23300
O375        O  0.81214465  0.52706822  0.99556020    -0.85500
O376        O  0.83612813  0.58677993  0.04112776    -0.82600
C377        C  0.83814629  0.61004995  0.06875080     0.97900
O378        O  0.82154423  0.60247369  0.10050847    -0.82600
O379        O  0.74458799  0.60863909  0.08432825    -0.85200
C380        C  0.71363160  0.60161191  0.06687796     1.02500
O381        O  0.70542410  0.56813375  0.05604821    -0.78000
O382        O  0.75491196  0.55297945  0.99452408    -0.78200
C383        C  0.78592442  0.54423459  0.97758694     1.02400
O384        O  0.81845124  0.47674398  0.05903121    -0.85500
O385        O  0.85319070  0.53392564  0.10054700    -0.82600
C386        C  0.83995126  0.52263297  0.13228154     0.98000
O387        O  0.80573204  0.53060633  0.14144797    -0.82600
O388        O  0.72831858  0.54117863  0.12945280    -0.85200
C389        C  0.71394794  0.50931214  0.11980922     1.02400
O390        O  0.72118115  0.49472365  0.08743227    -0.78000
O391        O  0.76560432  0.47586780  0.02456864    -0.78200
C392        C  0.79422814  0.45867589  0.03920268     1.02400
Cr393      Cr  0.82655675  0.53189005  0.05039926     1.93700
Cr394      Cr  0.77535717  0.56878520  0.11089819     1.93200
Cr395      Cr  0.73977296  0.52438637  0.04253252     1.39100
O396        O  0.78020005  0.54179206  0.06807735    -1.23300
O397        O  0.55040731  0.51942374  0.26857460    -0.85500
O398        O  0.56643383  0.46089778  0.21700236    -0.82600
C399        C  0.60035839  0.45028930  0.22475062     0.97900
O400        O  0.60763281  0.43138706  0.25486262    -0.82600
O401        O  0.60291530  0.41337141  0.33158090    -0.85200
C402        C  0.61004417  0.44457256  0.34888331     1.02500
O403        O  0.58610579  0.47191994  0.34757553    -0.78000
O404        O  0.52370503  0.51657337  0.32522247    -0.78200
C405        C  0.54230239  0.53499371  0.30030375     1.02400
O406        O  0.47264013  0.48744313  0.27900682    -0.85500
O407        O  0.49312458  0.42729043  0.23215205    -0.82600
C408        C  0.50780682  0.39486582  0.22543071     0.98000
O409        O  0.54025260  0.38553429  0.23916940    -0.82600
O410        O  0.53111892  0.37184910  0.31634251    -0.85200
C411        C  0.52367073  0.38004710  0.35084006     1.02400
O412        O  0.53490057  0.41138759  0.36428385    -0.78000
O413        O  0.47555237  0.45176444  0.33107448    -0.78200
C414        C  0.45614651  0.47114899  0.30736246     1.02400
Cr415      Cr  0.52209933  0.47194599  0.25209428     1.93700
Cr416      Cr  0.56848479  0.40353236  0.28579544     1.93200
Cr417      Cr  0.53079884  0.46176799  0.33854387     1.39100
O418        O  0.54050878  0.44554514  0.29171323    -1.23300
O419        O  0.50427653  0.66544947  0.45113040    -0.85500
O420        O  0.57695288  0.64378206  0.42796432    -0.82600
C421        C  0.57646954  0.65927050  0.39502509     0.97900
O422        O  0.57954139  0.69510295  0.39177113    -0.82600
O423        O  0.57686406  0.77203003  0.41179751    -0.85200
C424        C  0.54155914  0.78075685  0.41002441     1.02500
O425        O  0.51783151  0.76650917  0.43340731    -0.78000
O426        O  0.48396213  0.71576078  0.48342094    -0.78200
C427        C  0.47714844  0.68543132  0.46450831     1.02400
O428        O  0.52992602  0.67398814  0.52821066    -0.85500
O429        O  0.60397796  0.66320399  0.50380106    -0.82600
C430        C  0.63513491  0.66611870  0.48546282     0.98000
O431        O  0.63576678  0.68194669  0.45258138    -0.82600
O432        O  0.62595248  0.75508902  0.47537709    -0.85200
C433        C  0.61039811  0.78296464  0.49210851     1.02400
O434        O  0.57419095  0.78807803  0.49042883    -0.78000
O435        O  0.54260579  0.73432802  0.53896699    -0.78200
C436        C  0.53223219  0.70195388  0.55096689     1.02400
Cr437      Cr  0.55456591  0.66494991  0.47695351     1.93700
Cr438      Cr  0.60157055  0.72521995  0.43484151     1.93200
Cr439      Cr  0.53197358  0.74878023  0.48492725     1.39100
O440        O  0.56254016  0.71325609  0.46555285    -1.23300
O441        O  0.25501836  0.54321920  0.53671473    -0.85500
O442        O  0.20202764  0.56260136  0.47917760    -0.82600
C443        C  0.21150758  0.59667614  0.47165980     0.97900
O444        O  0.24337105  0.60374483  0.45558803    -0.82600
O445        O  0.31855561  0.59317688  0.42984291    -0.85200
C446        C  0.34110694  0.59466183  0.45833336     1.02500
O447        O  0.34012111  0.56927039  0.48419822    -0.78000
O448        O  0.31042732  0.51336558  0.53084279    -0.78200
C449        C  0.28666555  0.53215685  0.55089514     1.02400
O450        O  0.25823467  0.46683803  0.50631174    -0.85500
O451        O  0.21422618  0.49046946  0.44457722    -0.82600
C452        C  0.20652782  0.50770533  0.41354282     0.98000
O453        O  0.21899295  0.54119218  0.40681056    -0.82600
O454        O  0.29338306  0.52905229  0.38521085    -0.85200
C455        C  0.32689706  0.51598109  0.38946758     1.02400
O456        O  0.34315441  0.51650575  0.42179983    -0.78000
O457        O  0.30649563  0.46278260  0.46623995    -0.78200
C458        C  0.28417121  0.44711856  0.49018194     1.02400
Cr459      Cr  0.23526386  0.51711408  0.48963305     1.93700
Cr460      Cr  0.26894380  0.56461124  0.42257350     1.93200
Cr461      Cr  0.32154163  0.51670617  0.47472743     1.39100
O462        O  0.27534270  0.53301579  0.46211205    -1.23300
O463        O  0.47329358  0.48885988  0.69445385    -0.85500
O464        O  0.41182060  0.53285307  0.67296514    -0.82600
C465        C  0.38592455  0.55816028  0.67373664     0.97900
O466        O  0.39128343  0.58901003  0.69204875    -0.82600
O467        O  0.38786215  0.56364017  0.76700009    -0.85200
C468        C  0.39753162  0.54697778  0.79768673     1.02500
O469        O  0.43255734  0.54116399  0.80548937    -0.78000
O470        O  0.45067577  0.48333700  0.75318265    -0.78200
C471        C  0.45868242  0.46864299  0.72090645     1.02400
O472        O  0.52179933  0.55461842  0.69059073    -0.85500
O473        O  0.46207924  0.59701102  0.66068373    -0.82600
C474        C  0.46799732  0.62868998  0.67698687     0.98000
O475        O  0.45921630  0.63338118  0.71179325    -0.82600
O476        O  0.45047970  0.61337182  0.78763278    -0.85200
C477        C  0.48494153  0.60799526  0.79822730     1.02400
O478        O  0.50354498  0.57900866  0.78701970    -0.78000
O479        O  0.52501439  0.51785163  0.74160565    -0.78200
C480        C  0.54112093  0.53366421  0.71303852     1.02400
Cr481      Cr  0.46641294  0.54444233  0.68303168     1.93700
Cr482      Cr  0.42441494  0.59707421  0.73899449     1.93200
Cr483      Cr  0.47638279  0.53227546  0.76912167     1.39100
O484        O  0.45571971  0.55795597  0.73042728    -1.23300
O485        O  0.51670104  0.26291114  0.56436433    -0.85500
O486        O  0.46453936  0.20514871  0.58552135    -0.82600
C487        C  0.45763661  0.21077924  0.62079493     0.97900
O488        O  0.43904362  0.23995165  0.63157606    -0.82600
O489        O  0.40887704  0.31381388  0.63017569    -0.85200
C490        C  0.43797515  0.33570065  0.63320031     1.02500
O491        O  0.46220158  0.33778703  0.60623008    -0.78000
O492        O  0.50403120  0.32036449  0.54209611    -0.78200
C493        C  0.52774560  0.29615333  0.55479295     1.02400
O494        O  0.47726495  0.27142617  0.49209274    -0.85500
O495        O  0.42199900  0.21955212  0.51697910    -0.82600
C496        C  0.39324780  0.20741755  0.53576148     0.98000
O497        O  0.38788613  0.21744999  0.57039134    -0.82600
O498        O  0.36240467  0.29077491  0.56383210    -0.85200
C499        C  0.36412833  0.32557564  0.55462053     1.02400
O500        O  0.39442779  0.34442907  0.56041633    -0.78000
O501        O  0.43552625  0.31788705  0.49837869    -0.78200
C502        C  0.45882099  0.29932400  0.47771457     1.02400
Cr503      Cr  0.46795561  0.24226323  0.54154439     1.93700
Cr504      Cr  0.40235083  0.26640089  0.59679447     1.93200
Cr505      Cr  0.44828655  0.32652803  0.55269242     1.39100
O506        O  0.43961742  0.27820126  0.56388390    -1.23300
O507        O  0.68551529  0.47944096  0.49636044    -0.85500
O508        O  0.65669923  0.42069513  0.54101751    -0.82600
C509        C  0.65543344  0.39485912  0.56658961     0.97900
O510        O  0.67527457  0.39803101  0.59689432    -0.82600
O511        O  0.74959884  0.38550124  0.57187312    -0.85200
C512        C  0.78135104  0.39186734  0.55538127     1.02500
O513        O  0.79164219  0.42549359  0.54691082    -0.78000
O514        O  0.74023035  0.44891547  0.48927281    -0.78200
C515        C  0.70888172  0.46139971  0.47539793     1.02400
O516        O  0.68974959  0.52723567  0.56202324    -0.85500
O517        O  0.65202282  0.47171922  0.60420562    -0.82600
C518        C  0.66880169  0.47597901  0.63586554     0.98000
O519        O  0.70228841  0.46306389  0.64087842    -0.82600
O520        O  0.77646888  0.44622927  0.62003070    -0.85200
C521        C  0.79071739  0.47914228  0.61456928     1.02400
O522        O  0.78319374  0.49757792  0.58412627    -0.78000
O523        O  0.73959582  0.52372590  0.52344029    -0.78200
C524        C  0.71427244  0.54334736  0.54047692     1.02400
Cr525      Cr  0.67433505  0.47352970  0.55191514     1.93700
Cr526      Cr  0.72547749  0.42549287  0.60444417     1.93200
Cr527      Cr  0.76080643  0.47255925  0.53788746     1.39100
O528        O  0.72026845  0.45696773  0.56471852    -1.23300
C529        C  0.58300187  0.32684332  0.52341876    -0.21500
C530        C  0.56805958  0.30876990  0.55637813    -0.09500
C531        C  0.58631923  0.31432554  0.59182711     0.29300
C532        C  0.61669949  0.34066342  0.59465910    -0.21500
C533        C  0.62886185  0.36190870  0.56222547    -0.09500
C534        C  0.61301235  0.35318480  0.52616453     0.29300
F535        F  0.62481395  0.37174118  0.49382423    -0.20100
H536        H  0.56901714  0.32309192  0.49586178     0.17700
H537        H  0.62873425  0.34644090  0.62273137     0.17700
F538        F  0.57211771  0.29766481  0.62423399    -0.20000
C539        C  0.41066096  0.38042859  0.68288674    -0.21500
C540        C  0.44272036  0.36197360  0.66633478    -0.09500
C541        C  0.47988623  0.37414168  0.67675350     0.29300
C542        C  0.48474665  0.40674191  0.69934828    -0.21500
C543        C  0.45281212  0.42771105  0.71233675    -0.09500
C544        C  0.41564657  0.41323453  0.70572970     0.29300
F545        F  0.38423125  0.43317218  0.71756455    -0.20100
H546        H  0.38176184  0.37168714  0.67526523     0.17700
H547        H  0.51361338  0.41759768  0.70388146     0.17700
F548        F  0.51163485  0.35633804  0.66249854    -0.20000
C549        C  0.63079307  0.47498210  0.69617403    -0.21500
C550        C  0.64730030  0.49592824  0.66596355    -0.09500
C551        C  0.63327443  0.53268563  0.65748084     0.29300
C552        C  0.60078779  0.54673962  0.67613025    -0.21500
C553        C  0.58127898  0.52400583  0.70309738    -0.09500
C554        C  0.59779686  0.48885461  0.71476572     0.29300
F555        F  0.57969383  0.46581236  0.74063162    -0.20100
H556        H  0.64073488  0.44620507  0.70241115     0.17700
H557        H  0.58892909  0.57393090  0.66684826     0.17700
F558        F  0.64798988  0.55294784  0.62765303    -0.20000
C559        C  0.31247166  0.50886149  0.61216011    -0.21500
C560        C  0.29789338  0.53976198  0.59080978    -0.09500
C561        C  0.30605325  0.57728703  0.60264287     0.29300
C562        C  0.33235110  0.58351990  0.63255957    -0.21500
C563        C  0.35076529  0.55233438  0.65054704    -0.09500
C564        C  0.33866408  0.51495916  0.64175095     0.29300
F565        F  0.35444289  0.48410804  0.65962363    -0.20100
H566        H  0.30655337  0.47972277  0.60334720     0.17700
H567        H  0.34095033  0.61257232  0.63910097     0.17700
F568        F  0.29257276  0.60765360  0.58223794    -0.20000
C569        C  0.31439989  0.38327558  0.48031112    -0.21500
C570        C  0.29264356  0.40786888  0.50370350    -0.09500
C571        C  0.28655632  0.39788323  0.54260381     0.29300
C572        C  0.30665329  0.36709506  0.55880549    -0.21500
C573        C  0.33191124  0.34541673  0.53621171    -0.09500
C574        C  0.33374484  0.35205953  0.49640502     0.29300
F575        F  0.35768250  0.33103288  0.47388014    -0.20100
H576        H  0.31909262  0.39008719  0.45023037     0.17700
H577        H  0.30535840  0.36254182  0.58962132     0.17700
F578        F  0.26528247  0.42058912  0.56611949    -0.20000
C579        C  0.71390315  0.59456725  0.49129963    -0.21500
C580        C  0.70925403  0.58378635  0.53001105    -0.09500
C581        C  0.69122317  0.60911696  0.55548255     0.29300
C582        C  0.67076709  0.64023744  0.54100244    -0.21500
C583        C  0.66898730  0.64649496  0.50113205    -0.09500
C584        C  0.69381757  0.62605189  0.47674921     0.29300
F585        F  0.69427173  0.63274082  0.43827496    -0.20100
H586        H  0.72903367  0.57608285  0.47137520     0.17700
H587        H  0.65318570  0.65700951  0.56049927     0.17700
F588        F  0.69068964  0.60197146  0.59378303    -0.20000
C589        C  0.41813032  0.66087999  0.49604305    -0.21500
C590        C  0.43784738  0.67018726  0.46199941    -0.09500
C591        C  0.42286157  0.65835526  0.42657571     0.29300
C592        C  0.38939167  0.63613787  0.42544567    -0.21500
C593        C  0.37122113  0.62440139  0.45970573    -0.09500
C594        C  0.38527479  0.63780268  0.49505275     0.29300
F595        F  0.36821953  0.62729751  0.52867092    -0.20100
H596        H  0.42979284  0.66904846  0.52362216     0.17700
H597        H  0.37922221  0.62592259  0.39791723     0.17700
F598        F  0.44161338  0.66680545  0.39329379    -0.20000
C599        C  0.54201301  0.67804657  0.61727623    -0.21500
C600        C  0.51839074  0.69649172  0.59040258    -0.09500
C601        C  0.47870153  0.69980127  0.59768994     0.29300
C602        C  0.46225840  0.68086348  0.62918649    -0.21500
C603        C  0.48547177  0.65940909  0.65411080    -0.09500
C604        C  0.52565955  0.65991713  0.64932991     0.29300
F605        F  0.54857241  0.63936266  0.67329294    -0.20100
H606        H  0.57257156  0.67485132  0.61170473     0.17700
H607        H  0.43118990  0.68019857  0.63220328     0.17700
F608        F  0.45539806  0.71771103  0.57202042    -0.20000
C609        C  0.65642250  0.48468554  0.38548399    -0.21500
C610        C  0.64458987  0.44815734  0.37375891    -0.09500
C611        C  0.66276378  0.41575121  0.39011660     0.29300
C612        C  0.68882425  0.42009020  0.42066786    -0.21500
C613        C  0.69727982  0.45665440  0.43492496    -0.09500
C614        C  0.68242368  0.48893840  0.41564834     0.29300
F615        F  0.68971107  0.52471282  0.42891524    -0.20100
H616        H  0.64348250  0.51013606  0.37310239     0.17700
H617        H  0.69919532  0.39484481  0.43561896     0.17700
F618        F  0.65251054  0.37984543  0.37942431    -0.20000
C619        C  0.51254956  0.31694839  0.38381387    -0.21500
C620        C  0.50139357  0.35488596  0.37658664    -0.09500
C621        C  0.47223249  0.37145060  0.39919205     0.29300
C622        C  0.45546318  0.35109030  0.42919305    -0.21500
C623        C  0.46889823  0.31448694  0.43910876    -0.09500
C624        C  0.49688758  0.29694158  0.41535177     0.29300
F625        F  0.51103365  0.26172205  0.42402386    -0.20100
H626        H  0.53547316  0.30401519  0.36710676     0.17700
H627        H  0.43426655  0.36564404  0.44680966     0.17700
F628        F  0.46201503  0.40865109  0.39441289    -0.20000
C629        C  0.53468418  0.63146359  0.34493520    -0.21500
C630        C  0.57142603  0.63471306  0.36111075    -0.09500
C631        C  0.60052034  0.60904334  0.34983235     0.29300
C632        C  0.59216428  0.57913817  0.32437501    -0.21500
C633        C  0.55448702  0.57389075  0.31083188    -0.09500
C634        C  0.52605931  0.60099318  0.32041462     0.29300
F635        F  0.48897084  0.59553947  0.30947680    -0.20100
H636        H  0.51174668  0.65046379  0.35406796     0.17700
H637        H  0.61404887  0.55774918  0.31859556     0.17700
F638        F  0.63606287  0.61105339  0.36583880    -0.20000
C639        C  0.36173952  0.46288910  0.35866458    -0.21500
C640        C  0.34917989  0.50099903  0.35697291    -0.09500
C641        C  0.36663501  0.52642323  0.33085633     0.29300
C642        C  0.39962221  0.51508472  0.31053733    -0.21500
C643        C  0.41517848  0.47833550  0.31622198    -0.09500
C644        C  0.39415258  0.45136739  0.33788994     0.29300
F645        F  0.40673922  0.41471679  0.34143626    -0.20100
H646        H  0.34837851  0.44290131  0.37855273     0.17700
H647        H  0.41515808  0.53622552  0.29370444     0.17700
F648        F  0.35485659  0.56344590  0.32878977    -0.20000
C649        C  0.69274105  0.49263609  0.18630825    -0.21500
C650        C  0.68701064  0.49006159  0.14643390    -0.09500
C651        C  0.65395537  0.47150163  0.13256772     0.29300
C652        C  0.62621622  0.45761952  0.15831047    -0.21500
C653        C  0.63162164  0.46092765  0.19813536    -0.09500
C654        C  0.66553022  0.47772739  0.21203223     0.29300
F655        F  0.67115349  0.48190693  0.25039913    -0.20100
H656        H  0.71804313  0.50681340  0.19753503     0.17700
H657        H  0.60013072  0.44484178  0.14716496     0.17700
F658        F  0.64734787  0.46883655  0.09421927    -0.20000
C659        C  0.85389749  0.48600615  0.70263694    -0.21500
C660        C  0.86778406  0.52363236  0.70032953    -0.09500
C661        C  0.85492064  0.54759962  0.67043561     0.29300
C662        C  0.82975240  0.53322770  0.64241404    -0.21500
C663        C  0.81689477  0.49497416  0.64414939    -0.09500
C664        C  0.82886082  0.47175491  0.67515723     0.29300
F665        F  0.81727286  0.43476872  0.67875894    -0.20100
H666        H  0.86313112  0.46707666  0.72561353     0.17700
H667        H  0.82065557  0.55187210  0.61919681     0.17700
F668        F  0.86799640  0.58409735  0.66728249    -0.20000
C669        C  0.82561816  0.52529734  0.88084894    -0.21500
C670        C  0.84386227  0.56032193  0.87348848    -0.09500
C671        C  0.83389296  0.59248849  0.89557407     0.29300
C672        C  0.80868163  0.58860556  0.92697204    -0.21500
C673        C  0.79367882  0.55254125  0.93683180    -0.09500
C674        C  0.80073667  0.52134280  0.91231343     0.29300
F675        F  0.78771234  0.48588881  0.92182997    -0.20100
H676        H  0.83351389  0.50013433  0.86451292     0.17700
H677        H  0.80463852  0.61265375  0.94615543     0.17700
F678        F  0.85179001  0.62652768  0.88941355    -0.20000
C679        C  0.91143744  0.67785621  0.02709881    -0.21500
C680        C  0.92839679  0.69196022  0.06070522    -0.09500
C681        C  0.90985633  0.68624815  0.09613810     0.29300
C682        C  0.87749836  0.66232172  0.09831033    -0.21500
C683        C  0.86365094  0.64389074  0.06514244    -0.09500
C684        C  0.87922122  0.65417128  0.02911289     0.29300
F685        F  0.86566512  0.63865480  0.99608104    -0.20100
H686        H  0.92547868  0.68208578  0.99951517     0.17700
H687        H  0.86566172  0.65545602  0.12633806     0.17700
F688        F  0.92572125  0.69974759  0.12900871    -0.20000
C689        C  0.03262071  0.63030875  0.89163242    -0.21500
C690        C  0.99451221  0.63662864  0.87962209    -0.09500
C691        C  0.97370291  0.66744807  0.89521547     0.29300
C692        C  0.98932394  0.68854877  0.92551274    -0.21500
C693        C  0.02565498  0.67893688  0.94059971    -0.09500
C694        C  0.04809785  0.65116898  0.92185369     0.29300
F695        F  0.08388045  0.64206251  0.93454141    -0.20100
H696        H  0.04956200  0.60750653  0.87939451     0.17700
H697        H  0.97163285  0.70988076  0.93927467     0.17700
F698        F  0.93702231  0.67476065  0.88398973    -0.20000
C699        C  0.12079373  0.45195969  0.83879697    -0.21500
C700        C  0.14287489  0.47983762  0.85744943    -0.09500
C701        C  0.13171554  0.51845033  0.85530186     0.29300
C702        C  0.09779343  0.52872982  0.83627433    -0.21500
C703        C  0.07432404  0.50046787  0.82009834    -0.09500
C704        C  0.08644898  0.46210699  0.82053476     0.29300
F705        F  0.06343387  0.43417225  0.80628424    -0.20100
H706        H  0.12826040  0.42190561  0.84151863     0.17700
H707        H  0.08817744  0.55824586  0.83705399     0.17700
F708        F  0.15145923  0.54554418  0.87495770    -0.20000
C709        C  0.34460030  0.52802613  0.89043664    -0.21500
C710        C  0.31670136  0.50174070  0.87831469    -0.09500
C711        C  0.31409662  0.49251602  0.83898652     0.29300
C712        C  0.33937778  0.50904239  0.81248529    -0.21500
C713        C  0.36820008  0.53396005  0.82495169    -0.09500
C714        C  0.37067153  0.54353338  0.86403431     0.29300
F715        F  0.39852958  0.56750779  0.87669273    -0.20100
H716        H  0.34720042  0.53537401  0.92054907     0.17700
H717        H  0.33752702  0.50112670  0.78244595     0.17700
F718        F  0.28739450  0.46726549  0.82616479    -0.20000
C719        C  0.20372432  0.58190077  0.04133314    -0.21500
C720        C  0.19989496  0.57426600  0.00186776    -0.09500
C721        C  0.18017264  0.60059838  0.97843933     0.29300
C722        C  0.16185084  0.63223810  0.99491315    -0.21500
C723        C  0.16229701  0.63744433  0.03484627    -0.09500
C724        C  0.18444269  0.61292683  0.05789283     0.29300
F725        F  0.18428875  0.61681124  0.09672103    -0.20100
H726        H  0.21847841  0.56178807  0.05996543     0.17700
H727        H  0.14452882  0.65082473  0.97694574     0.17700
F728        F  0.17648083  0.59435844  0.94013910    -0.20000
C729        C  0.89291937  0.37501695  0.86039333    -0.21500
C730        C  0.92395494  0.34961089  0.86347523    -0.09500
C731        C  0.95705906  0.35555167  0.84096997     0.29300
C732        C  0.96090712  0.38943023  0.81957736    -0.21500
C733        C  0.93181355  0.41741896  0.82095178    -0.09500
C734        C  0.89664572  0.40867916  0.83912142     0.29300
F735        F  0.86739114  0.43449604  0.83969811    -0.20100
H736        H  0.86722874  0.37070494  0.87766038     0.17700
H737        H  0.98818293  0.39555813  0.80563389     0.17700
F738        F  0.98735117  0.33109580  0.84350688    -0.20000
C739        C  0.84069401  0.36237019  0.04341779    -0.21500
C740        C  0.84160532  0.35312850  0.00416820    -0.09500
C741        C  0.81855921  0.37401041  0.97834410     0.29300
C742        C  0.79901809  0.40667410  0.99104438    -0.21500
C743        C  0.80255235  0.41867663  0.02935415    -0.09500
C744        C  0.82130767  0.39493371  0.05599647     0.29300
F745        F  0.82332326  0.40480741  0.09364368    -0.20100
H746        H  0.85767355  0.34614537  0.06389810     0.17700
H747        H  0.78444610  0.42458800  0.97016535     0.17700
F748        F  0.81871645  0.36579996  0.94023090    -0.20000
C749        C  0.09332179  0.31212855  0.98919956    -0.21500
C750        C  0.06795877  0.31099204  0.95788452    -0.09500
C751        C  0.07821334  0.32939003  0.92332273     0.29300
C752        C  0.11194656  0.35090656  0.92117849    -0.21500
C753        C  0.13517533  0.35534009  0.95377219    -0.09500
C754        C  0.12650104  0.33471726  0.98742676     0.29300
F755        F  0.14895332  0.33804929  0.01909426    -0.20100
H756        H  0.08576913  0.29835324  0.01611895     0.17700
H757        H  0.11814770  0.36673829  0.89502376     0.17700
F758        F  0.05431147  0.32873793  0.89252781    -0.20000
C759        C  0.12629944  0.45174968  0.36802296    -0.21500
C760        C  0.13494433  0.45643537  0.32885319    -0.09500
C761        C  0.16791569  0.47685191  0.31765615     0.29300
C762        C  0.19123670  0.49349128  0.34556437    -0.21500
C763        C  0.18233077  0.48913697  0.38476999    -0.09500
C764        C  0.15008700  0.46757229  0.39591686     0.29300
F765        F  0.14056208  0.46342074  0.43359664    -0.20100
H766        H  0.10071845  0.43627638  0.37695096     0.17700
H767        H  0.21618329  0.50993683  0.33660579     0.17700
F768        F  0.17629392  0.48248382  0.27988362    -0.20000
C769        C  0.17227836  0.40009770  0.13086165    -0.21500
C770        C  0.15924072  0.43219883  0.15152449    -0.09500
C771        C  0.17493288  0.46834458  0.14283867     0.29300
C772        C  0.19953563  0.47287715  0.11131490    -0.21500
C773        C  0.20879267  0.44161843  0.08782156    -0.09500
C774        C  0.19673923  0.40478669  0.09892935     0.29300
F775        F  0.20445777  0.37422725  0.07615092    -0.20100
H776        H  0.16049601  0.37198698  0.13693959     0.17700
H777        H  0.20809330  0.50155050  0.10285408     0.17700
F778        F  0.16389021  0.49985641  0.16279459    -0.20000
C779        C  0.02134111  0.58373090  0.20331616    -0.16700
C780        C  0.05451470  0.56286595  0.21279504    -0.09500
C781        C  0.09083083  0.57787518  0.20326490     0.29300
C782        C  0.09354447  0.61127145  0.18086711    -0.21500
C783        C  0.06002918  0.62960129  0.16747585    -0.09500
C784        C  0.02396410  0.61695804  0.18099792     0.29300
F785        F  0.99104045  0.63485455  0.16997624    -0.20100
H786        H  0.99309991  0.57231414  0.21019288     0.17700
H787        H  0.12165840  0.62048911  0.17087093     0.17700
F788        F  0.12331230  0.55791192  0.21166182    -0.20000
C789        C  0.04405025  0.30808854  0.13301432    -0.21500
C790        C  0.02171971  0.33208629  0.15631568    -0.09500
C791        C  0.98185669  0.33487015  0.15009496     0.29300
C792        C  0.96529031  0.31698663  0.11832818    -0.21500
C793        C  0.98827240  0.29560082  0.09315359    -0.09500
C794        C  0.02732834  0.28958475  0.10168740     0.29300
F795        F  0.05007189  0.26923673  0.07737961    -0.20100
H796        H  0.07492528  0.30632017  0.13710090     0.17700
H797        H  0.93529097  0.32232957  0.11167481     0.17700
F798        F  0.95980709  0.35809565  0.17235721    -0.20000
C799        C  0.91822524  0.45406251  0.15858532    -0.21500
C800        C  0.92937414  0.46732955  0.19487298    -0.09500
C801        C  0.90578418  0.49442813  0.21377787     0.29300
C802        C  0.87383437  0.51036339  0.19479701    -0.21500
C803        C  0.86565029  0.49976360  0.15684401    -0.09500
C804        C  0.88734108  0.47052950  0.13950376     0.29300
F805        F  0.88063190  0.45981886  0.10270402    -0.20100
H806        H  0.93529888  0.43300262  0.14332557     0.17700
H807        H  0.85749104  0.53297546  0.20851488     0.17700
F808        F  0.91494940  0.50739931  0.24931820    -0.20000
C809        C  0.48279763  0.11574817  0.66720609    -0.21500
C810        C  0.49993907  0.12772157  0.70152341    -0.09500
C811        C  0.50168400  0.16709051  0.70989452     0.29300
C812        C  0.48660108  0.19401259  0.68414469    -0.21500
C813        C  0.47078360  0.18215699  0.64914002    -0.09500
C814        C  0.46884085  0.14274008  0.64086861     0.29300
F815        F  0.45329610  0.13033463  0.60739208    -0.20100
H816        H  0.48146875  0.08557309  0.66020082     0.17700
H817        H  0.48843435  0.22420788  0.69095280     0.17700
F818        F  0.51798334  0.17948283  0.74301245    -0.20000
C819        C  0.49713378  0.66743531  0.88726399    -0.21500
C820        C  0.53305718  0.68484526  0.88110932    -0.09500
C821        C  0.55312763  0.67749867  0.84663497     0.29300
C822        C  0.53790507  0.65175807  0.81970944    -0.21500
C823        C  0.50194221  0.63444054  0.82627539    -0.09500
C824        C  0.48145067  0.64304540  0.85994435     0.29300
F825        F  0.44647916  0.62715360  0.86684575    -0.20100
H826        H  0.48083419  0.67307044  0.91326888     0.17700
H827        H  0.55379956  0.64581041  0.79353757     0.17700
F828        F  0.58761482  0.69438640  0.83941568    -0.20000
C829        C  0.59516692  0.87920202  0.85601650    -0.21500
C830        C  0.56254073  0.85791472  0.86703100    -0.09500
C831        C  0.52723142  0.86534327  0.84881821     0.29300
C832        C  0.52371916  0.89640759  0.82356040    -0.21500
C833        C  0.55530674  0.92039194  0.81597183    -0.09500
C834        C  0.59154826  0.91050720  0.83086990     0.29300
F835        F  0.62225004  0.93391590  0.82510766    -0.20100
H836        H  0.62266085  0.87398954  0.86971970     0.17700
H837        H  0.49542149  0.90397590  0.81287224     0.17700
F838        F  0.49552010  0.84425635  0.85756007    -0.20000
C839        C  0.62077852  0.65372268  0.04793781    -0.21500
C840        C  0.63392309  0.68392512  0.02465171    -0.09500
C841        C  0.67378282  0.68974094  0.02005128     0.29300
C842        C  0.69997174  0.66437420  0.03677532    -0.21500
C843        C  0.68669759  0.63251490  0.05745387    -0.09500
C844        C  0.64698558  0.62778797  0.06384497     0.29300
F845        F  0.63361007  0.59744456  0.08445740    -0.20100
H846        H  0.59019586  0.64905762  0.05211502     0.17700
H847        H  0.73051769  0.66825365  0.03154818     0.17700
F848        F  0.68736199  0.71947941  0.99871125    -0.20000
C849        C  0.85148581  0.11671521  0.04373464    -0.21500
C850        C  0.81359106  0.12811516  0.05244973    -0.09500
C851        C  0.80303516  0.16665321  0.04783061     0.29300
C852        C  0.82949860  0.19275260  0.03279683    -0.21500
C853        C  0.86688021  0.18094383  0.02239742    -0.09500
C854        C  0.87801280  0.14283697  0.02896151     0.29300
F855        F  0.91376831  0.13026085  0.01934289    -0.20100
H856        H  0.86044646  0.08721731  0.04757078     0.17700
H857        H  0.82035063  0.22211111  0.02834749     0.17700
F858        F  0.76674777  0.17876526  0.05597103    -0.20000
C859        C  0.66241405  0.01605273  0.89356458    -0.21500
C860        C  0.64582616  0.05153593  0.88422759    -0.09500
C861        C  0.65706530  0.08436520  0.90477306     0.29300
C862        C  0.68178360  0.08091317  0.93630307    -0.21500
C863        C  0.69572442  0.04489497  0.94746238    -0.09500
C864        C  0.68733171  0.01274973  0.92485887     0.29300
F865        F  0.70011382  0.97751418  0.93550424    -0.20100
H866        H  0.65429494  0.99049270  0.87802474     0.17700
H867        H  0.68689661  0.10568795  0.95423121     0.17700
F868        F  0.64078655  0.11895242  0.89725891    -0.20000
C869        C  0.64469920  0.86398295  0.04508776    -0.21500
C870        C  0.65655568  0.85053490  0.00914238    -0.09500
C871        C  0.68846745  0.86730080  0.99100212     0.29300
C872        C  0.70566138  0.89975941  0.00718054    -0.21500
C873        C  0.69070284  0.91592818  0.04124996    -0.09500
C874        C  0.66150982  0.89625775  0.06123244     0.29300
F875        F  0.64675241  0.90993909  0.09461451    -0.20100
H876        H  0.61985729  0.85158040  0.05884961     0.17700
H877        H  0.72830190  0.91412355  0.99123714     0.17700
F878        F  0.70017892  0.85499690  0.95588603    -0.20000
C879        C  0.52563453  0.84484982  0.15027022    -0.21500
C880        C  0.48649739  0.84112211  0.15933541    -0.09500
C881        C  0.46387090  0.81517668  0.13865779     0.29300
C882        C  0.47964397  0.79595523  0.10698008    -0.21500
C883        C  0.51764864  0.80352518  0.09489008    -0.09500
C884        C  0.54121618  0.82615805  0.11840675     0.29300
F885        F  0.57877103  0.83182281  0.10960183    -0.20100
H886        H  0.54341606  0.86468026  0.16611893     0.17700
H887        H  0.46112736  0.77781394  0.09000233     0.17700
F888        F  0.42573748  0.81149062  0.14657671    -0.20000
C889        C  0.48781359  0.81002337  0.37390443    -0.21500
C890        C  0.52741855  0.80869768  0.38148731    -0.09500
C891        C  0.55198556  0.83534517  0.36333837     0.29300
C892        C  0.53676173  0.86286091  0.33820510    -0.21500
C893        C  0.49701409  0.86399223  0.33071629    -0.09500
C894        C  0.47268161  0.83722843  0.34897754     0.29300
F895        F  0.43398057  0.83757557  0.34346634    -0.20100
H896        H  0.46821222  0.78997774  0.38755249     0.17700
H897        H  0.55605720  0.88316016  0.32452148     0.17700
F898        F  0.59037707  0.83553391  0.37058198    -0.20000
C899        C  0.59438686  0.01327605  0.22377786    -0.21500
C900        C  0.58086515  0.97679574  0.21329152    -0.09500
C901        C  0.60411631  0.95336036  0.19007092     0.29300
C902        C  0.63782289  0.96806454  0.17389516    -0.21500
C903        C  0.64822603  0.00627724  0.18006962    -0.09500
C904        C  0.62767836  0.02822112  0.20677906     0.29300
F905        F  0.63696645  0.06550645  0.21259152    -0.20100
H906        H  0.57713903  0.03178218  0.24189745     0.17700
H907        H  0.65365161  0.95096713  0.15332625     0.17700
F908        F  0.59274397  0.91751117  0.18045767    -0.20000
C909        C  0.19902595  0.82551005  0.99504511    -0.21500
C910        C  0.18577242  0.86144098  0.98258194    -0.09500
C911        C  0.14612439  0.86977373  0.98439257     0.29300
C912        C  0.12036677  0.84270357  0.99912213    -0.21500
C913        C  0.13395910  0.80756145  0.01310499    -0.09500
C914        C  0.17336420  0.79889602  0.01074095     0.29300
F915        F  0.18692054  0.76471444  0.02364675    -0.20100
H916        H  0.22943202  0.81857650  0.99385138     0.17700
H917        H  0.08998809  0.84966344  0.00087385     0.17700
F918        F  0.13230770  0.90401230  0.97191791    -0.20000
C919        C  0.37482138  0.83166300  0.99494466    -0.21500
C920        C  0.36258941  0.84288186  0.95821238    -0.09500
C921        C  0.37984803  0.82592177  0.92567043     0.29300
C922        C  0.41218381  0.80223043  0.93004101    -0.21500
C923        C  0.42707261  0.79502497  0.96675411    -0.09500
C924        C  0.40676452  0.80791782  0.99920932     0.29300
F925        F  0.42056159  0.80124654  0.03504040    -0.20100
H926        H  0.36160447  0.84378060  0.02042438     0.17700
H927        H  0.42789947  0.79304045  0.90473125     0.17700
F928        F  0.36853386  0.83576018  0.88964487    -0.20000
C929        C  0.41198451  0.97077788  0.81144180    -0.21500
C930        C  0.42233878  0.00892921  0.81920741    -0.09500
C931        C  0.39736999  0.03175979  0.84129949     0.29300
C932        C  0.36463875  0.01555647  0.85822388    -0.21500
C933        C  0.35672205  0.97645417  0.85377136    -0.09500
C934        C  0.37969154  0.95441652  0.82912627     0.29300
F935        F  0.37334738  0.91623256  0.82557783    -0.20100
H936        H  0.43092790  0.95251850  0.79478727     0.17700
H937        H  0.34742293  0.03269893  0.87770581     0.17700
F938        F  0.40602866  0.06887953  0.84879581    -0.20000
C939        C  0.30923615  0.91625061  0.10296912    -0.21500
C940        C  0.30353034  0.95202596  0.08553775    -0.09500
C941        C  0.31966489  0.98483922  0.10228165     0.29300
C942        C  0.34459963  0.98139677  0.13339208    -0.21500
C943        C  0.35388750  0.94517588  0.14831628    -0.09500
C944        C  0.33423398  0.91271712  0.13434055     0.29300
F945        F  0.34221259  0.87715304  0.14808808    -0.20100
H946        H  0.29774563  0.89062214  0.08983152     0.17700
H947        H  0.35876517  0.00687127  0.14400507     0.17700
F948        F  0.31487202  0.01976251  0.08559185    -0.20000
C949        C  0.45708748  0.35142395  0.13987588    -0.21500
C950        C  0.45828877  0.31219099  0.14916155    -0.09500
C951        C  0.47244730  0.30084091  0.18522077     0.29300
C952        C  0.48761034  0.32814212  0.21034001    -0.21500
C953        C  0.48770176  0.36723239  0.20048138    -0.09500
C954        C  0.47105823  0.37885137  0.16555448     0.29300
F955        F  0.47056951  0.41637138  0.15516162    -0.20100
H956        H  0.44612133  0.36075057  0.11224821     0.17700
H957        H  0.50003560  0.31867949  0.23728850     0.17700
F958        F  0.47402965  0.26321408  0.19507097    -0.20000
C959        C  0.47989807  0.12419968  0.18007464    -0.21500
C960        C  0.44315386  0.13551140  0.16774325    -0.09500
C961        C  0.41048135  0.11815813  0.18459934     0.29300
C962        C  0.41498280  0.08629468  0.20892311    -0.21500
C963        C  0.45192863  0.07207599  0.21685696    -0.09500
C964        C  0.48429740  0.09269934  0.20429495     0.29300
F965        F  0.52033191  0.07940392  0.21148402    -0.20100
H966        H  0.50547591  0.13756358  0.16821779     0.17700
H967        H  0.38974708  0.07037038  0.21798020     0.17700
F968        F  0.37440327  0.12894381  0.17420458    -0.20000
C969        C  0.59848728  0.18756650  0.04143358    -0.21500
C970        C  0.57484781  0.19621289  0.07306006    -0.09500
C971        C  0.58477670  0.18178449  0.10949667     0.29300
C972        C  0.61561828  0.15603223  0.11327924    -0.21500
C973        C  0.63623305  0.14386995  0.08062843    -0.09500
C974        C  0.62881435  0.16149308  0.04504435     0.29300
F975        F  0.64905139  0.15137499  0.01319056    -0.20100
H976        H  0.59080750  0.19776505  0.01299185     0.17700
H977        H  0.62090394  0.14282799  0.14101558     0.17700
F978        F  0.56173447  0.18861578  0.14034307    -0.20000
C979        C  0.37038189  0.11434019  0.99081757    -0.21500
C980        C  0.35244315  0.13431380  0.02080108    -0.09500
C981        C  0.31456018  0.12482979  0.03119942     0.29300
C982        C  0.29656986  0.09312128  0.01412881    -0.21500
C983        C  0.31610951  0.07102609  0.98626345    -0.09500
C984        C  0.35237914  0.08360280  0.97314080     0.29300
F985        F  0.37232644  0.06417799  0.94578755    -0.20100
H986        H  0.39980029  0.12078718  0.98289655     0.17700
H987        H  0.26855985  0.08429703  0.02467977     0.17700
F988        F  0.29660101  0.14357053  0.06029116    -0.20000
C989        C  0.35561914  0.36135361  0.96473396    -0.21500
C990        C  0.31667287  0.36090757  0.97570180    -0.09500
C991        C  0.30342736  0.33286362  0.00140036     0.29300
C992        C  0.32913925  0.30641472  0.01705224    -0.21500
C993        C  0.36841048  0.30717661  0.00697582    -0.09500
C994        C  0.38133676  0.33429311  0.97977654     0.29300
F995        F  0.41900353  0.33599090  0.96929621    -0.20100
H996        H  0.36618179  0.38311026  0.94505580     0.17700
H997        H  0.31841691  0.28577612  0.03782392     0.17700
F998        F  0.26613165  0.33267570  0.01328974    -0.20000
C999        C  0.52249411  0.19320847  0.92649025    -0.21500
C1000       C  0.48466474  0.18612568  0.93925880    -0.09500
C1001       C  0.46000480  0.16414279  0.91621059     0.29300
C1002       C  0.47431079  0.14595654  0.88348451    -0.21500
C1003       C  0.51313201  0.14981855  0.87309690    -0.09500
C1004       C  0.53678436  0.17493062  0.89365982     0.29300
F1005       F  0.57466551  0.17839439  0.88450808    -0.20100
H1006       H  0.54203887  0.21002113  0.94378555     0.17700
H1007       H  0.45588467  0.12637090  0.86800006     0.17700
F1008       F  0.42275148  0.15838769  0.92651955    -0.20000
C1009       C  0.02915933  0.68824873  0.68889231    -0.21500
C1010       C  0.03408354  0.67708556  0.65053173    -0.09500
C1011       C  0.02593562  0.63887841  0.64022333     0.29300
C1012       C  0.01169942  0.61305399  0.66744043    -0.21500
C1013       C  0.00479308  0.62467906  0.70536573    -0.09500
C1014       C  0.01440949  0.66245254  0.71609933     0.29300
F1015       F  0.00878435  0.67485116  0.75263451    -0.20100
H1016       H  0.03517968  0.71741497  0.69749625     0.17700
H1017       H  0.00471685  0.58424674  0.65835802     0.17700
F1018       F  0.03095715  0.62649339  0.60357080    -0.20000
C1019       C  0.14435928  0.62079012  0.47708922    -0.21500
C1020       C  0.18405271  0.62742917  0.48143843    -0.09500
C1021       C  0.19638638  0.66154411  0.49865591     0.29300
C1022       C  0.16927408  0.68728334  0.51356407    -0.21500
C1023       C  0.12957668  0.67990178  0.51049335    -0.09500
C1024       C  0.11728374  0.64701807  0.49095279     0.29300
F1025       F  0.07920365  0.63899267  0.48742897    -0.20100
H1026       H  0.13429195  0.59468662  0.46371739     0.17700
H1027       H  0.17928533  0.71270264  0.52821866     0.17700
F1028       F  0.23448513  0.66875537  0.50333019    -0.20000
C1029       C  0.69814031  0.82809973  0.53776979    -0.21500
C1030       C  0.68423557  0.86464057  0.54677988    -0.09500
C1031       C  0.64516636  0.87330403  0.54026927     0.29300
C1032       C  0.62095077  0.84624881  0.52351418    -0.21500
C1033       C  0.63530957  0.81030778  0.51265358    -0.09500
C1034       C  0.67409609  0.80116298  0.52070705     0.29300
F1035       F  0.68915171  0.76643036  0.51162486    -0.20100
H1036       H  0.72810566  0.82085226  0.54250995     0.17700
H1037       H  0.59121372  0.85386370  0.51807424     0.17700
F1038       F  0.63043084  0.90806493  0.54970674    -0.20000
C1039       C  0.87583208  0.83046161  0.60094644    -0.21500
C1040       C  0.86022511  0.84685296  0.56732430    -0.09500
C1041       C  0.87135492  0.83194021  0.53149346     0.29300
C1042       C  0.90056851  0.80449985  0.52930624    -0.21500
C1043       C  0.91974871  0.79192301  0.56258216    -0.09500
C1044       C  0.90567853  0.80338023  0.59863428     0.29300
F1045       F  0.92404446  0.79239202  0.63125148    -0.20100
H1046       H  0.86750910  0.84117767  0.62895446     0.17700
H1047       H  0.91130721  0.79639165  0.50119057     0.17700
F1048       F  0.85611449  0.84588522  0.49838928    -0.20000
C1049       C  0.65728047  0.02578066  0.63439548    -0.21500
C1050       C  0.68990293  0.00515777  0.64592922    -0.09500
C1051       C  0.69789597  0.00112637  0.68541710     0.29300
C1052       C  0.67246972  0.01588766  0.71290631    -0.21500
C1053       C  0.63837461  0.03394862  0.70131835    -0.09500
C1054       C  0.63136782  0.03965572  0.66185378     0.29300
F1055       F  0.59889141  0.05775971  0.64988810    -0.20100
H1056       H  0.65075551  0.02927229  0.60414127     0.17700
H1057       H  0.67829610  0.01128252  0.74316137     0.17700
F1058       F  0.72985159  0.98212699  0.69736260    -0.20000
C1059       C  0.15759220  0.01933101  0.89111494    -0.21500
C1060       C  0.18740920  0.99541902  0.87834571    -0.09500
C1061       C  0.19158832  0.98803973  0.83879408     0.29300
C1062       C  0.16578869  0.00395994  0.81251966    -0.21500
C1063       C  0.13500305  0.02636707  0.82554548    -0.09500
C1064       C  0.13111678  0.03425795  0.86495075     0.29300
F1065       F  0.10156502  0.05617504  0.87806049    -0.20100
H1066       H  0.15396399  0.02524007  0.92147463     0.17700
H1067       H  0.16888434  0.99753967  0.78220525     0.17700
F1068       F  0.22051427  0.96536471  0.82561878    -0.20000
C1069       C  0.08326310  0.87602380  0.67485772    -0.21500
C1070       C  0.04963373  0.86016750  0.65885839    -0.09500
C1071       C  0.01363649  0.87480359  0.67028222     0.29300
C1072       C  0.01161369  0.90702128  0.69380969    -0.21500
C1073       C  0.04523199  0.92512588  0.70664355    -0.09500
C1074       C  0.08113487  0.90850509  0.69845044     0.29300
F1075       F  0.11412044  0.92598021  0.70966261    -0.20100
H1076       H  0.11135817  0.86532486  0.66653127     0.17700
H1077       H  0.98371370  0.91975613  0.69947157     0.17700
F1078       F  0.98041029  0.85960815  0.65667134    -0.20000
C1079       C  0.02330288  0.15678409  0.84570283    -0.21500
C1080       C  0.00051143  0.12604780  0.83320781    -0.09500
C1081       C  0.96253550  0.12263814  0.84730996     0.29300
C1082       C  0.94823172  0.14935087  0.87382980    -0.21500
C1083       C  0.97172082  0.17935630  0.88681272    -0.09500
C1084       C  0.00926000  0.18301574  0.87211268     0.29300
F1085       F  0.03254049  0.21222217  0.88308934    -0.20100
H1086       H  0.05245754  0.16063639  0.83521610     0.17700
H1087       H  0.91926490  0.14599720  0.88499680     0.17700
F1088       F  0.93945447  0.09347362  0.83596272    -0.20000
C1089       C  0.87655677  0.96400893  0.69306611    -0.21500
C1090       C  0.85837916  0.98551850  0.66436201    -0.09500
C1091       C  0.86971819  0.02345197  0.65786321     0.29300
C1092       C  0.90095435  0.03885005  0.67736744    -0.21500
C1093       C  0.92155140  0.01647763  0.70375590    -0.09500
C1094       C  0.90787272  0.97942744  0.71299620     0.29300
F1095       F  0.92691071  0.95669141  0.73834936    -0.20100
H1096       H  0.86848611  0.93440910  0.69791998     0.17700
H1097       H  0.91060168  0.06737292  0.66979695     0.17700
F1098       F  0.85252073  0.04453494  0.63019373    -0.20000
C1099       C  0.98764179  0.29232465  0.34954265    -0.21500
C1100       C  0.96826198  0.30705489  0.38170409    -0.09500
C1101       C  0.96351858  0.34692843  0.38517859     0.29300
C1102       C  0.97861306  0.37160865  0.35720204    -0.21500
C1103       C  0.99964638  0.35698281  0.32604823    -0.09500
C1104       C  0.00378704  0.31710022  0.32217274     0.29300
F1105       F  0.02358418  0.30216288  0.29201907    -0.20100
H1106       H  0.99170400  0.26171563  0.34650420     0.17700
H1107       H  0.97522585  0.40225029  0.36068777     0.17700
F1108       F  0.94452577  0.36200613  0.41578820    -0.20000
C1109       C  0.81491773  0.12607045  0.48223061    -0.21500
C1110       C  0.84026932  0.14436233  0.50745409    -0.09500
C1111       C  0.84283175  0.13178654  0.54564723     0.29300
C1112       C  0.82413807  0.09836759  0.55702083    -0.21500
C1113       C  0.80339630  0.07670319  0.53035252    -0.09500
C1114       C  0.79621590  0.09236187  0.49367333     0.29300
F1115       F  0.77496661  0.07298296  0.46750262    -0.20100
H1116       H  0.81293468  0.13539803  0.45255043     0.17700
H1117       H  0.82818743  0.08807844  0.58592178     0.17700
F1118       F  0.86692582  0.14936998  0.57065492    -0.20000
C1119       C  0.87473399  0.33956625  0.54328885    -0.21500
C1120       C  0.86379708  0.30958108  0.51911715    -0.09500
C1121       C  0.82449434  0.30398574  0.51075955     0.29300
C1122       C  0.79683953  0.32939026  0.52504495    -0.21500
C1123       C  0.80833181  0.36085857  0.54697617    -0.09500
C1124       C  0.84729968  0.36537158  0.55672000     0.29300
F1125       F  0.85893692  0.39557443  0.57822648    -0.20100
H1126       H  0.90478102  0.34416856  0.55017927     0.17700
H1127       H  0.76688077  0.32575435  0.51723842     0.17700
F1128       F  0.81296305  0.27443252  0.48831226    -0.20000
C1129       C  0.95759454  0.17488469  0.62543908    -0.21500
C1130       C  0.98097638  0.19905165  0.60299326    -0.09500
C1131       C  0.01830225  0.20793242  0.61617043     0.29300
C1132       C  0.03370862  0.18816093  0.64771311    -0.21500
C1133       C  0.01171790  0.16035361  0.66686574    -0.09500
C1134       C  0.97279301  0.15582409  0.65728945     0.29300
F1135       F  0.95075504  0.12968225  0.67611867    -0.20100
H1136       H  0.92855238  0.16816745  0.61643779     0.17700
H1137       H  0.06388424  0.19175795  0.65465405     0.17700
F1138       F  0.04154786  0.23196455  0.59594599    -0.20000
C1139       C  0.85403413  0.94272769  0.17851456    -0.21500
C1140       C  0.87404753  0.96830651  0.20235798    -0.09500
C1141       C  0.86661598  0.00778052  0.19926843     0.29300
C1142       C  0.83972834  0.02120473  0.17309316    -0.21500
C1143       C  0.81952687  0.99586179  0.14928895    -0.09500
C1144       C  0.82704930  0.95636070  0.15194800     0.29300
F1145       F  0.80794843  0.93095987  0.12957978    -0.20100
H1146       H  0.85941851  0.91220815  0.18027909     0.17700
H1147       H  0.83472333  0.05180969  0.17159255     0.17700
F1148       F  0.88477797  0.03363145  0.22195265    -0.20000
C1149       C  0.82863384  0.95992956  0.37832406    -0.21500
C1150       C  0.84544304  0.92369147  0.37394216    -0.09500
C1151       C  0.83452982  0.89387054  0.39897051     0.29300
C1152       C  0.80985106  0.90125961  0.43007008    -0.21500
C1153       C  0.79654218  0.93857515  0.43695129    -0.09500
C1154       C  0.80457117  0.96747029  0.40980474     0.29300
F1155       F  0.79277865  0.00397587  0.41618405    -0.20100
H1156       H  0.83726834  0.98336481  0.35969216     0.17700
H1157       H  0.80463528  0.87886208  0.45107298     0.17700
F1158       F  0.85068230  0.85862389  0.39551517    -0.20000
C1159       C  0.97551415  0.78721125  0.42451793    -0.21500
C1160       C  0.01435419  0.79105420  0.43503345    -0.09500
C1161       C  0.04038757  0.80839552  0.40958579     0.29300
C1162       C  0.02653482  0.82756561  0.37737894    -0.21500
C1163       C  0.98671628  0.82951829  0.37067341    -0.09500
C1164       C  0.96156259  0.80649533  0.39229824     0.29300
F1165       F  0.92301247  0.80724025  0.38592060    -0.20100
H1166       H  0.95514491  0.77317408  0.44357128     0.17700
H1167       H  0.04642420  0.84427139  0.36005852     0.17700
F1168       F  0.07857377  0.80949524  0.41754731    -0.20000
C1169       C  0.91317635  0.07220306  0.35026036    -0.21500
C1170       C  0.94920878  0.05810251  0.33893179    -0.09500
C1171       C  0.98272063  0.07867021  0.34786018     0.29300
C1172       C  0.98026528  0.11150561  0.37045942    -0.21500
C1173       C  0.94434711  0.12454549  0.38362044    -0.09500
C1174       C  0.91059311  0.10556462  0.37201872     0.29300
F1175       F  0.87541776  0.11706963  0.38469789    -0.20100
H1176       H  0.88721332  0.05623823  0.34395270     0.17700
H1177       H  0.00653353  0.12570842  0.37921451     0.17700
F1178       F  0.01799778  0.06489896  0.33811005    -0.20000
C1179       C  0.02882106  0.84603234  0.13974084    -0.21500
C1180       C  0.03387084  0.80730501  0.14965348    -0.09500
C1181       C  0.02455508  0.79487742  0.18694546     0.29300
C1182       C  0.00946639  0.82066461  0.21347245    -0.21500
C1183       C  0.00348641  0.85928888  0.20340495    -0.09500
C1184       C  0.01399846  0.87197392  0.16640714     0.29300
F1185       F  0.00871374  0.90896446  0.15545465    -0.20100
H1186       H  0.03601968  0.85616397  0.11112015     0.17700
H1187       H  0.00173152  0.81010618  0.24179637     0.17700
F1188       F  0.02816522  0.75748210  0.19720889    -0.20000
C1189       C  0.35122174  0.12862827  0.47380505    -0.21500
C1190       C  0.31230678  0.12967574  0.48475660    -0.09500
C1191       C  0.30004315  0.15652347  0.51210127     0.29300
C1192       C  0.32659649  0.18163475  0.52863758    -0.21500
C1193       C  0.36561119  0.18085461  0.51759624    -0.09500
C1194       C  0.37764057  0.15437401  0.48959023     0.29300
F1195       F  0.41513298  0.15234776  0.47857619    -0.20100
H1196       H  0.36115771  0.10764534  0.45314627     0.17700
H1197       H  0.31664310  0.20178233  0.55010378     0.17700
F1198       F  0.26278323  0.15722928  0.52407637    -0.20000
C1199       C  0.11537036  0.16015575  0.42759842    -0.21500
C1200       C  0.13588675  0.14644767  0.45966243    -0.09500
C1201       C  0.12745262  0.16146092  0.49617028     0.29300
C1202       C  0.09643226  0.18638496  0.50106974    -0.21500
C1203       C  0.07329749  0.19678900  0.46977205    -0.09500
C1204       C  0.08395608  0.18501833  0.43262485     0.29300
F1205       F  0.06129033  0.19362891  0.40204397    -0.20100
H1206       H  0.12127448  0.14884841  0.39922218     0.17700
H1207       H  0.08824027  0.19472262  0.52995134     0.17700
F1208       F  0.14734807  0.14972807  0.52761247    -0.20000
C1209       C  0.18753910  0.01517969  0.61038952    -0.21500
C1210       C  0.19984843  0.04720680  0.58933278    -0.09500
C1211       C  0.19078283  0.08407511  0.60255736     0.29300
C1212       C  0.16553568  0.08849990  0.63378231    -0.21500
C1213       C  0.14906047  0.05611282  0.65148663    -0.09500
C1214       C  0.16227602  0.01947990  0.64122990     0.29300
F1215       F  0.14810562  0.98763118  0.65875964    -0.20100
H1216       H  0.19408422  0.98656271  0.60027987     0.17700
H1217       H  0.15594262  0.11699519  0.64147921     0.17700
F1218       F  0.20216286  0.11543337  0.58232275    -0.20000
C1219       C  0.13270446  0.96962225  0.36882733    -0.21500
C1220       C  0.14333474  0.00744100  0.36011301    -0.09500
C1221       C  0.12417233  0.02712091  0.33059069     0.29300
C1222       C  0.09261216  0.01010117  0.31232422    -0.21500
C1223       C  0.07970690  0.97367503  0.32385982    -0.09500
C1224       C  0.10087127  0.95289689  0.35114281     0.29300
F1225       F  0.08862027  0.91791448  0.36319689    -0.20100
H1226       H  0.14697427  0.95432488  0.39185315     0.17700
H1227       H  0.07600254  0.02680348  0.29194614     0.17700
F1228       F  0.13319901  0.06411056  0.32252127    -0.20000
C1229       C  0.37117980  0.96059181  0.36740809    -0.21500
C1230       C  0.36379972  0.96436191  0.32787638    -0.09500
C1231       C  0.32955887  0.98182697  0.31558160     0.29300
C1232       C  0.30384937  0.99669483  0.34265520    -0.21500
C1233       C  0.31158739  0.99339978  0.38212531    -0.09500
C1234       C  0.34505295  0.97460432  0.39444308     0.29300
F1235       F  0.35354677  0.97183497  0.43243300    -0.20100
H1236       H  0.39757711  0.94730206  0.37732993     0.17700
H1237       H  0.27811105  0.01128839  0.33285216     0.17700
F1238       F  0.32211070  0.98651360  0.27755881    -0.20000
C1239       C  0.18071296  0.86726503  0.54301992    -0.21500
C1240       C  0.14847199  0.85305823  0.52353974    -0.09500
C1241       C  0.13770092  0.86995036  0.48850585     0.29300
C1242       C  0.15703391  0.90195844  0.47446551    -0.21500
C1243       C  0.18694952  0.91872654  0.49552441    -0.09500
C1244       C  0.19991907  0.90003374  0.52919877     0.29300
F1245       F  0.22855954  0.91530989  0.55068431    -0.20100
H1246       H  0.18881953  0.85518233  0.57056803     0.17700
H1247       H  0.14638123  0.91537951  0.44849426     0.17700
F1248       F  0.10588693  0.85782541  0.46968754    -0.20000
loop_ 
_geom_bond_atom_site_label_1 
_geom_bond_atom_site_label_2 
_geom_bond_distance 
_geom_bond_site_symmetry_2 
_ccdc_geom_bond_type 
O1          Cr19   1.985       .  S
O1            C9   1.261       .  A
O2          Cr19   1.972       .  S
O2            C3   1.260       .  A
C3            O4   1.267       .  A
C3         C1200   1.479       .  S
O4          Cr20   2.021       .  S
O5          Cr20   1.990       .  S
O5            C6   1.264       .  A
C6            O7   1.265       .  A
C6         C1190   1.470       .  S
O7          Cr21   2.005       .  S
O8          Cr21   1.992       .  S
O8            C9   1.260       .  A
C9         C1210   1.461       .  S
O10         Cr19   1.968   1_565  S
O10          C18   1.261       .  A
O11         Cr19   1.990       .  S
O11          C12   1.261       .  A
C12          O13   1.261       .  A
C12        C1220   1.467       .  S
O13         Cr20   1.995       .  S
O14         Cr20   1.995       .  S
O14          C15   1.265       .  A
C15          O16   1.261   1_545  A
C15        C1233   1.463   1_545  S
O16         Cr21   1.973   1_565  S
O17         Cr21   2.026   1_565  S
O17          C18   1.268       .  A
C18        C1243   1.485       .  S
Cr19         O22   1.754       .  S
Cr20         O22   1.771       .  S
Cr21         O22   1.774       .  S
O23         Cr41   1.962       .  S
O23          C31   1.260   1_565  A
O24         Cr41   2.010       .  S
O24          C25   1.264       .  A
C25          O26   1.259       .  A
C25        C1150   1.472       .  S
O26         Cr42   1.991       .  S
O27         Cr42   2.005       .  S
O27          C28   1.265       .  A
C28          O29   1.257       .  A
C28        C1140   1.472       .  S
O29         Cr43   1.955       .  S
O30         Cr43   2.017   1_545  S
O30          C31   1.269       .  A
C31        C1170   1.460       .  S
O32         Cr41   2.001   1_455  S
O32          C40   1.263       .  A
O33         Cr41   1.949       .  S
O33          C34   1.256       .  A
C34          O35   1.268       .  A
C34        C1163   1.459       .  S
O35         Cr42   2.014       .  S
O36         Cr42   1.954       .  S
O36          C37   1.257       .  A
C37          O38   1.268       .  A
C37        C1183   1.474   1_655  S
O38         Cr43   2.012       .  S
O39         Cr43   1.984   1_455  S
O39          C40   1.258       .  A
C40        C1223   1.468       .  S
Cr41         O44   1.751       .  S
Cr42         O44   1.771       .  S
Cr43         O44   1.768       .  S
O45         Cr63   2.002   1_455  S
O45          C53   1.265       .  A
O46         Cr63   2.002       .  S
O46          C47   1.263       .  A
C47          O48   1.261       .  A
C47        C1100   1.473       .  S
O48         Cr64   1.987       .  S
O49         Cr64   2.000       .  S
O49          C50   1.264       .  A
C50          O51   1.260       .  A
C50        C1173   1.468       .  S
O51         Cr65   1.972       .  S
O52         Cr65   1.990   1_455  S
O52          C53   1.262       .  A
C53        C1203   1.468       .  S
O54         Cr63   2.017       .  S
O54          C62   1.266       .  A
O55         Cr63   1.976       .  S
O55          C56   1.264       .  A
C56          O57   1.266       .  A
C56        C1120   1.467       .  S
O57         Cr64   1.993       .  S
O58         Cr64   1.984       .  S
O58          C59   1.258       .  A
C59          O60   1.261       .  A
C59        C1110   1.459       .  S
O60         Cr65   1.984       .  S
O61         Cr65   1.975       .  S
O61          C62   1.259       .  A
C62        C1130   1.480       .  S
Cr63         O66   1.770       .  S
Cr64         O66   1.771       .  S
Cr65         O66   1.755       .  S
O67         Cr85   2.004   1_565  S
O67          C75   1.265       .  A
O68         Cr85   1.999       .  S
O68          C69   1.264       .  A
C69          O70   1.261       .  A
C69        C1063   1.461       .  S
O70         Cr86   1.979       .  S
O71         Cr86   2.013       .  S
O71          C72   1.265       .  A
C72          O73   1.259       .  A
C72        C1213   1.474       .  S
O73         Cr87   1.969       .  S
O74         Cr87   1.987   1_565  S
O74          C75   1.261       .  A
C75        C1073   1.470       .  S
O76         Cr85   2.004   1_655  S
O76          C84   1.264       .  A
O77         Cr85   1.987   1_655  S
O77          C78   1.263   1_655  A
C78          O79   1.265       .  A
C78        C1080   1.480       .  S
O79         Cr86   1.990       .  S
O80         Cr86   1.990       .  S
O80          C81   1.259       .  A
C81          O82   1.262       .  A
C81        C1133   1.465       .  S
O82         Cr87   1.993       .  S
O83         Cr87   1.974   1_655  S
O83          C84   1.262       .  A
C84        C1093   1.476       .  S
Cr85         O88   1.771       .  S
Cr86         O88   1.771       .  S
Cr87         O88   1.755       .  S
O89        Cr107   2.005       .  S
O89          C97   1.264       .  A
O90        Cr107   1.992       .  S
O90          C91   1.262       .  A
C91          O92   1.261       .  A
C91        C1030   1.471       .  S
O92        Cr108   1.980       .  S
O93        Cr108   2.012       .  S
O93          C94   1.266       .  A
C94          O95   1.264       .  A
C94        C1040   1.484       .  S
O95        Cr109   1.987       .  S
O96        Cr109   1.993       .  S
O96          C97   1.261       .  A
C97        C1153   1.472       .  S
O98        Cr107   2.008   1_545  S
O98         C106   1.264       .  A
O99        Cr107   1.984   1_545  S
O99         C100   1.263   1_545  A
C100        O101   1.265       .  A
C100       C1050   1.472   1_565  S
O101       Cr108   1.995       .  S
O102       Cr108   1.985       .  S
O102        C103   1.258       .  A
C103        O104   1.261       .  A
C103       C1090   1.463       .  S
O104       Cr109   1.991       .  S
O105       Cr109   1.981   1_545  S
O105        C106   1.263       .  A
C106       C1113   1.476       .  S
Cr107       O110   1.775       .  S
Cr108       O110   1.772       .  S
Cr109       O110   1.758       .  S
O111       Cr129   1.976   1_655  S
O111        C119   1.257       .  A
O112       Cr129   1.977       .  S
O112        C113   1.264       .  A
C113        O114   1.270       .  A
C113       C1070   1.483       .  S
O114       Cr130   2.019       .  S
O115       Cr130   1.998       .  S
O115        C116   1.265       .  A
C116        O117   1.258       .  A
C116       C1010   1.478       .  S
O117       Cr131   1.976       .  S
O118       Cr131   2.015   1_655  S
O118        C119   1.267       .  A
C119       C1043   1.471       .  S
O120       Cr129   1.980       .  S
O120        C128   1.263       .  A
O121       Cr129   1.975       .  S
O121        C122   1.255       .  A
C122        O123   1.261       .  A
C122       C1240   1.471       .  S
O123       Cr130   2.005       .  S
O124       Cr130   1.999       .  S
O124        C125   1.267       .  A
C125        O126   1.263       .  A
C125       C1023   1.476       .  S
O126       Cr131   1.982       .  S
O127       Cr131   1.988       .  S
O127        C128   1.260       .  A
C128       C1160   1.460       .  S
Cr129       O132   1.760       .  S
Cr130       O132   1.776       .  S
Cr131       O132   1.777       .  S
O133       Cr151   1.978       .  S
O133        C141   1.257       .  A
O134       Cr151   1.969       .  S
O134        C135   1.262       .  A
C135        O136   1.269       .  A
C135        C960   1.479       .  S
O136       Cr152   2.020       .  S
O137       Cr152   1.991       .  S
O137        C138   1.264       .  A
C138        O139   1.265       .  A
C138        C950   1.477       .  S
O139       Cr153   2.001       .  S
O140       Cr153   2.011       .  S
O140        C141   1.264       .  A
C141        C970   1.468       .  S
O142       Cr151   1.975   1_556  S
O142        C150   1.262       .  A
O143       Cr151   1.979       .  S
O143        C144   1.256       .  A
C144        O145   1.261       .  A
C144        C980   1.471       .  S
O145       Cr152   2.007       .  S
O146       Cr152   1.993       .  S
O146        C147   1.266       .  A
C147        O148   1.263       .  A
C147        C993   1.477       .  S
O148       Cr153   1.984       .  S
O149       Cr153   2.017   1_556  S
O149        C150   1.269       .  A
C150       C1000   1.476       .  S
Cr151       O154   1.757       .  S
Cr152       O154   1.773       .  S
Cr153       O154   1.772       .  S
O155       Cr173   1.977   1_554  S
O155        C163   1.258       .  A
O156       Cr173   1.972       .  S
O156        C157   1.262       .  A
C157        O158   1.267       .  A
C157        C920   1.477       .  S
O158       Cr174   2.016       .  S
O159       Cr174   1.976       .  S
O159        C160   1.262       .  A
C160        O161   1.266       .  A
C160        C910   1.471       .  S
O161       Cr175   2.004       .  S
O162       Cr175   2.000   1_554  S
O162        C163   1.262       .  A
C163        C940   1.464       .  S
O164       Cr173   1.969   1_545  S
O164        C172   1.261       .  A
O165       Cr173   1.986       .  S
O165        C166   1.258       .  A
C166        O167   1.259       .  A
C166        C933   1.461       .  S
O167       Cr174   1.993       .  S
O168       Cr174   1.992       .  S
O168        C169   1.263       .  A
C169        O170   1.261       .  A
C169       C1060   1.466       .  S
O170       Cr175   1.974       .  S
O171       Cr175   2.021   1_545  S
O171        C172   1.269       .  A
C172        C983   1.484       .  S
Cr173       O176   1.754       .  S
Cr174       O176   1.770       .  S
Cr175       O176   1.772       .  S
O177       Cr195   1.998   1_545  S
O177        C185   1.263       .  A
O178       Cr195   1.992       .  S
O178        C179   1.262       .  A
C179        O180   1.261       .  A
C179       C1230   1.466       .  S
O180       Cr196   1.984       .  S
O181       Cr196   2.005       .  S
O181        C182   1.264       .  A
C182        O183   1.262       .  A
C182        C943   1.479       .  S
O183       Cr197   1.978       .  S
O184       Cr197   1.987   1_545  S
O184        C185   1.262       .  A
C185        C963   1.465       .  S
O186       Cr195   2.001       .  S
O186        C194   1.264       .  A
O187       Cr195   1.981       .  S
O187        C188   1.263       .  A
C188        O189   1.265       .  A
C188        C893   1.475       .  S
O189       Cr196   1.991       .  S
O190       Cr196   1.992       .  S
O190        C191   1.261       .  A
C191        O192   1.261       .  A
C191        C880   1.465       .  S
O192       Cr197   1.989       .  S
O193       Cr197   1.980       .  S
O193        C194   1.262       .  A
C194        C900   1.473       .  S
Cr195       O198   1.771       .  S
Cr196       O198   1.768       .  S
Cr197       O198   1.755       .  S
O199       Cr217   1.997       .  S
O199        C207   1.263   1_554  A
O200       Cr217   1.992       .  S
O200        C201   1.265       .  A
C201        O202   1.263       .  A
C201        C850   1.469       .  S
O202       Cr218   1.976       .  S
O203       Cr218   2.015       .  S
O203        C204   1.265       .  A
C204        O205   1.262       .  A
C204        C973   1.479       .  S
O205       Cr219   1.983       .  S
O206       Cr219   1.983       .  S
O206        C207   1.260   1_554  A
C207        C863   1.463       .  S
O208       Cr217   2.004   1_565  S
O208        C216   1.264       .  A
O209       Cr217   1.985   1_565  S
O209        C210   1.262   1_565  A
C210        O211   1.263       .  A
C210       C1143   1.473   1_545  S
O211       Cr218   1.985       .  S
O212       Cr218   1.985       .  S
O212        C213   1.258       .  A
C213        O214   1.261       .  A
C213        C903   1.457       .  S
O214       Cr219   1.986       .  S
O215       Cr219   1.979   1_565  S
O215        C216   1.263       .  A
C216        C873   1.480       .  S
Cr217       O220   1.770       .  S
Cr218       O220   1.771       .  S
Cr219       O220   1.755       .  S
O221       Cr239   1.996       .  S
O221        C229   1.261       .  A
O222       Cr239   1.996       .  S
O222        C223   1.266       .  A
C223        O224   1.262       .  A
C223        C820   1.477       .  S
O224       Cr240   1.986       .  S
O225       Cr240   2.019       .  S
O225        C226   1.268       .  A
C226        O227   1.263       .  A
C226        C830   1.480       .  S
O227       Cr241   1.982       .  S
O228       Cr241   1.985       .  S
O228        C229   1.260       .  A
C229        C923   1.465       .  S
O230       Cr239   2.016   1_554  S
O230        C238   1.267       .  A
O231       Cr239   1.977   1_554  S
O231        C232   1.260       .  A
C232        O233   1.265   1_554  A
C232        C840   1.470       .  S
O233       Cr240   1.996       .  S
O234       Cr240   1.992       .  S
O234        C235   1.259       .  A
C235        O236   1.259       .  A
C235        C870   1.463   1_556  S
O236       Cr241   1.985       .  S
O237       Cr241   1.987   1_554  S
O237        C238   1.264       .  A
C238        C883   1.483       .  S
Cr239       O242   1.773       .  S
Cr240       O242   1.779       .  S
Cr241       O242   1.757       .  S
O243       Cr261   1.987   1_565  S
O243        C251   1.260       .  A
O244       Cr261   1.980       .  S
O244        C245   1.262       .  A
C245        O246   1.266       .  A
C245        C860   1.476       .  S
O246       Cr262   2.010       .  S
O247       Cr262   1.989       .  S
O247        C248   1.262       .  A
C248        O249   1.262       .  A
C248       C1053   1.471       .  S
O249       Cr263   1.995       .  S
O250       Cr263   2.007   1_565  S
O250        C251   1.265       .  A
C251        C833   1.469       .  S
O252       Cr261   1.979       .  S
O252        C260   1.261       .  A
O253       Cr261   1.985       .  S
O253        C254   1.259       .  A
C254        O255   1.259       .  A
C254       C1003   1.461       .  S
O255       Cr262   1.989       .  S
O256       Cr262   1.996       .  S
O256        C257   1.265       .  A
C257        O258   1.265       .  A
C257        C810   1.472       .  S
O258       Cr263   1.986       .  S
O259       Cr263   2.011       .  S
O259        C260   1.266       .  A
C260        C930   1.476       .  S
Cr261       O264   1.762       .  S
Cr262       O264   1.774       .  S
Cr263       O264   1.773       .  S
O265       Cr283   1.991       .  S
O265        C273   1.261       .  A
O266       Cr283   1.973       .  S
O266        C267   1.260       .  A
C267        O268   1.269       .  A
C267        C770   1.481       .  S
O268       Cr284   2.028       .  S
O269       Cr284   1.978       .  S
O269        C270   1.262       .  A
C270        O271   1.264       .  A
C270        C760   1.460       .  S
O271       Cr285   1.993       .  S
O272       Cr285   1.998       .  S
O272        C273   1.262       .  A
C273        C780   1.468       .  S
O274       Cr283   1.965   1_655  S
O274        C282   1.260       .  A
O275       Cr283   1.996       .  S
O275        C276   1.262       .  A
C276        O277   1.258       .  A
C276        C790   1.461       .  S
O277       Cr284   1.984       .  S
O278       Cr284   2.005       .  S
O278        C279   1.267       .  A
C279        O280   1.262       .  A
C279       C1103   1.473   1_455  S
O280       Cr285   1.978       .  S
O281       Cr285   2.016   1_655  S
O281        C282   1.266       .  A
C282        C800   1.481       .  S
Cr283       O286   1.754       .  S
Cr284       O286   1.771       .  S
Cr285       O286   1.773       .  S
O287       Cr305   1.960   1_455  S
O287        C295   1.258       .  A
O288       Cr305   1.999       .  S
O288        C289   1.264       .  A
C289        O290   1.257       .  A
C289        C730   1.461       .  S
O290       Cr306   1.984       .  S
O291       Cr306   2.019       .  S
O291        C292   1.267       .  A
C292        O293   1.256       .  A
C292       C1083   1.472       .  S
O293       Cr307   1.952       .  S
O294       Cr307   2.025   1_455  S
O294        C295   1.270       .  A
C295        C750   1.468       .  S
O296       Cr305   2.000   1_554  S
O296        C304   1.263       .  A
O297       Cr305   1.957   1_554  S
O297        C298   1.258   1_554  A
C298        O299   1.270       .  A
C298        C740   1.470   1_556  S
O299       Cr306   2.027       .  S
O300       Cr306   1.950       .  S
O300        C301   1.256   1_556  A
C301        O302   1.269   1_554  A
C301        C853   1.471       .  S
O302       Cr307   2.013       .  S
O303       Cr307   1.979   1_554  S
O303        C304   1.257       .  A
C304        C793   1.462       .  S
Cr305       O308   1.749       .  S
Cr306       O308   1.770       .  S
Cr307       O308   1.765       .  S
O309       Cr327   2.004   1_554  S
O309        C317   1.264       .  A
O310       Cr327   2.004       .  S
O310        C311   1.263       .  A
C311        O312   1.260       .  A
C311        C990   1.465       .  S
O312       Cr328   1.981       .  S
O313       Cr328   2.001       .  S
O313        C314   1.264       .  A
C314        O315   1.260       .  A
C314        C753   1.466       .  S
O315       Cr329   1.978       .  S
O316       Cr329   1.987   1_554  S
O316        C317   1.261       .  A
C317        C773   1.469       .  S
O318       Cr327   2.015   1_554  S
O318        C326   1.267   1_554  A
O319       Cr327   1.979       .  S
O319        C320   1.264       .  A
C320        O321   1.265       .  A
C320        C710   1.470       .  S
O321       Cr328   1.992       .  S
O322       Cr328   1.991       .  S
O322        C323   1.261       .  A
C323        O324   1.260       .  A
C323        C700   1.463       .  S
O324       Cr329   1.988       .  S
O325       Cr329   1.977       .  S
O325        C326   1.260       .  A
C326        C720   1.474   1_556  S
Cr327       O330   1.773       .  S
Cr328       O330   1.771       .  S
Cr329       O330   1.757       .  S
O331       Cr349   1.996   1_655  S
O331        C339   1.261       .  A
O332       Cr349   1.997       .  S
O332        C333   1.264       .  A
C333        O334   1.262       .  A
C333       C1180   1.468       .  S
O334       Cr350   1.974       .  S
O335       Cr350   2.024       .  S
O335        C336   1.269       .  A
C336        O337   1.261       .  A
C336        C783   1.479       .  S
O337       Cr351   1.972       .  S
O338       Cr351   1.987   1_655  S
O338        C339   1.260       .  A
C339        C680   1.465       .  S
O340       Cr349   2.012   1_556  S
O340        C348   1.267       .  A
O341       Cr349   1.971       .  S
O341        C342   1.259       .  A
C342        O343   1.265       .  A
C342        C913   1.462       .  S
O343       Cr350   1.998       .  S
O344       Cr350   1.989       .  S
O344        C345   1.258       .  A
C345        O346   1.260       .  A
C345        C723   1.462       .  S
O346       Cr351   1.993       .  S
O347       Cr351   1.968   1_556  S
O347        C348   1.261       .  A
C348        C693   1.474       .  S
Cr349       O352   1.774       .  S
Cr350       O352   1.769       .  S
Cr351       O352   1.755       .  S
O353       Cr371   2.029       .  S
O353        C361   1.271       .  A
O354       Cr371   1.948       .  S
O354        C355   1.257       .  A
C355        O356   1.271       .  A
C355        C660   1.475       .  S
O356       Cr372   2.030       .  S
O357       Cr372   1.988       .  S
O357        C358   1.257       .  A
C358        O359   1.262       .  A
C358        C670   1.471       .  S
O359       Cr373   2.004       .  S
O360       Cr373   1.961       .  S
O360        C361   1.260       .  A
C361        C733   1.472       .  S
O362       Cr371   1.983   1_455  S
O362        C370   1.258       .  A
O363       Cr371   2.014       .  S
O363        C364   1.268       .  A
C364        O365   1.255       .  A
C364       C1013   1.481   1_655  S
O365       Cr372   1.963       .  S
O366       Cr372   2.028       .  S
O366        C367   1.273       .  A
C367        O368   1.258       .  A
C367        C690   1.474       .  S
O368       Cr373   1.951       .  S
O369       Cr373   2.006   1_455  S
O369        C370   1.263       .  A
C370        C703   1.464       .  S
Cr371       O374   1.766       .  S
Cr372       O374   1.771       .  S
Cr373       O374   1.754       .  S
O375       Cr393   1.981   1_556  S
O375        C383   1.256       .  A
O376       Cr393   1.970       .  S
O376        C377   1.263       .  A
C377        O378   1.271       .  A
C377        C683   1.482       .  S
O378       Cr394   2.020       .  S
O379       Cr394   1.981       .  S
O379        C380   1.261       .  A
C380        O381   1.263       .  A
C380        C843   1.464       .  S
O381       Cr395   1.994       .  S
O382       Cr395   2.010   1_556  S
O382        C383   1.263       .  A
C383        C673   1.469       .  S
O384       Cr393   1.968       .  S
O384        C392   1.261       .  A
O385       Cr393   1.979       .  S
O385        C386   1.256       .  A
C386        O387   1.260       .  A
C386        C803   1.470       .  S
O387       Cr394   2.003       .  S
O388       Cr394   2.001       .  S
O388        C389   1.267       .  A
C389        O390   1.262       .  A
C389        C650   1.474       .  S
O390       Cr395   1.977       .  S
O391       Cr395   2.016       .  S
O391        C392   1.268       .  A
C392        C743   1.467       .  S
Cr393       O396   1.755       .  S
Cr394       O396   1.773       .  S
Cr395       O396   1.773       .  S
O397       Cr415   2.014       .  S
O397        C405   1.263       .  A
O398       Cr415   1.999       .  S
O398        C399   1.264       .  A
C399        O400   1.262       .  A
C399        C653   1.471       .  S
O400       Cr416   1.983       .  S
O401       Cr416   2.025       .  S
O401        C402   1.272       .  A
C402        O403   1.266       .  A
C402        C610   1.487       .  S
O403       Cr417   1.979       .  S
O404       Cr417   1.982       .  S
O404        C405   1.254       .  A
C405        C633   1.471       .  S
O406       Cr415   2.027       .  S
O406        C414   1.271       .  A
O407       Cr415   1.985       .  S
O407        C408   1.263       .  A
C408        O409   1.267       .  A
C408        C953   1.478       .  S
O409       Cr416   2.002       .  S
O410       Cr416   2.004       .  S
O410        C411   1.260       .  A
C411        O412   1.255       .  A
C411        C620   1.470       .  S
O412       Cr417   1.976       .  S
O413       Cr417   1.968       .  S
O413        C414   1.261       .  A
C414        C643   1.476       .  S
Cr415       O418   1.775       .  S
Cr416       O418   1.771       .  S
Cr417       O418   1.758       .  S
O419       Cr437   1.966       .  S
O419        C427   1.260       .  A
O420       Cr437   2.013       .  S
O420        C421   1.265       .  A
C421        O422   1.260       .  A
C421        C630   1.472       .  S
O422       Cr438   1.989       .  S
O423       Cr438   2.010       .  S
O423        C424   1.264       .  A
C424        O425   1.257       .  A
C424        C890   1.474       .  S
O425       Cr439   1.957       .  S
O426       Cr439   2.028       .  S
O426        C427   1.272       .  A
C427        C590   1.468       .  S
O428       Cr437   2.000       .  S
O428        C436   1.262       .  A
O429       Cr437   1.957       .  S
O429        C430   1.258       .  A
C430        O431   1.268       .  A
C430        C583   1.466       .  S
O431       Cr438   2.017       .  S
O432       Cr438   1.953       .  S
O432        C433   1.256       .  A
C433        O434   1.271       .  A
C433       C1033   1.477       .  S
O434       Cr439   2.019       .  S
O435       Cr439   1.980       .  S
O435        C436   1.256       .  A
C436        C600   1.463       .  S
Cr437       O440   1.753       .  S
Cr438       O440   1.771       .  S
Cr439       O440   1.766       .  S
O441       Cr459   2.001       .  S
O441        C449   1.265       .  A
O442       Cr459   1.995       .  S
O442        C443   1.261       .  A
C443        O444   1.262       .  A
C443       C1020   1.475       .  S
O444       Cr460   1.994       .  S
O445       Cr460   2.008       .  S
O445        C446   1.266       .  A
C446        O447   1.261       .  A
C446        C593   1.475       .  S
O447       Cr461   1.975       .  S
O448       Cr461   1.991       .  S
O448        C449   1.263       .  A
C449        C560   1.468       .  S
O450       Cr459   2.011       .  S
O450        C458   1.264       .  A
O451       Cr459   1.969       .  S
O451        C452   1.263       .  A
C452        O453   1.268       .  A
C452        C763   1.463       .  S
O453       Cr460   1.997       .  S
O454       Cr460   1.988       .  S
O454        C455   1.258       .  A
C455        O456   1.260       .  A
C455        C640   1.465       .  S
O456       Cr461   1.985       .  S
O457       Cr461   1.978       .  S
O457        C458   1.259       .  A
C458        C570   1.477       .  S
Cr459       O462   1.774       .  S
Cr460       O462   1.774       .  S
Cr461       O462   1.758       .  S
O463       Cr481   1.994       .  S
O463        C471   1.262       .  A
O464       Cr481   1.971       .  S
O464        C465   1.260       .  A
C465        O466   1.268       .  A
C465        C563   1.480       .  S
O466       Cr482   2.021       .  S
O467       Cr482   1.976       .  S
O467        C468   1.260       .  A
C468        O469   1.263       .  A
C468        C713   1.460       .  S
O469       Cr483   2.000       .  S
O470       Cr483   2.009       .  S
O470        C471   1.266       .  A
C471        C543   1.475       .  S
O472       Cr481   1.974       .  S
O472        C480   1.262       .  A
O473       Cr481   1.996       .  S
O473        C474   1.262       .  A
C474        O475   1.258       .  A
C474        C603   1.463       .  S
O475       Cr482   1.986       .  S
O476       Cr482   2.006       .  S
O476        C477   1.267       .  A
C477        O478   1.262       .  A
C477        C823   1.471       .  S
O478       Cr483   1.989       .  S
O479       Cr483   2.003       .  S
O479        C480   1.263       .  A
C480        C553   1.474       .  S
Cr481       O484   1.755       .  S
Cr482       O484   1.770       .  S
Cr483       O484   1.768       .  S
O485       Cr503   2.008       .  S
O485        C493   1.265       .  A
O486       Cr503   2.004       .  S
O486        C487   1.265       .  A
C487        O488   1.263       .  A
C487        C813   1.474       .  S
O488       Cr504   1.985       .  S
O489       Cr504   2.039       .  S
O489        C490   1.272       .  A
C490        O491   1.259       .  A
C490        C540   1.486       .  S
O491       Cr505   1.967       .  S
O492       Cr505   1.980       .  S
O492        C493   1.259       .  A
C493        C530   1.469       .  S
O494       Cr503   2.020       .  S
O494        C502   1.267       .  A
O495       Cr503   1.980       .  S
O495        C496   1.263       .  A
C496        O497   1.269       .  A
C496       C1193   1.480       .  S
O497       Cr504   2.008       .  S
O498       Cr504   1.991       .  S
O498        C499   1.257       .  A
C499        O500   1.259       .  A
C499        C573   1.463       .  S
O500       Cr505   1.989       .  S
O501       Cr505   1.966       .  S
O501        C502   1.261       .  A
C502        C623   1.482       .  S
Cr503       O506   1.774       .  S
Cr504       O506   1.772       .  S
Cr505       O506   1.756       .  S
O507       Cr525   1.979       .  S
O507        C515   1.259       .  A
O508       Cr525   1.983       .  S
O508        C509   1.265       .  A
C509        O510   1.266       .  A
C509        C533   1.484       .  S
O510       Cr526   2.009       .  S
O511       Cr526   1.984       .  S
O511        C512   1.260       .  A
C512        O513   1.261       .  A
C512       C1123   1.461       .  S
O513       Cr527   1.985       .  S
O514       Cr527   2.018       .  S
O514        C515   1.268       .  A
C515        C613   1.475       .  S
O516       Cr525   1.984       .  S
O516        C524   1.263       .  A
O517       Cr525   1.975       .  S
O517        C518   1.257       .  A
C518        O519   1.259       .  A
C518        C550   1.462       .  S
O519       Cr526   1.995       .  S
O520       Cr526   1.991       .  S
O520        C521   1.265       .  A
C521        O522   1.265       .  A
C521        C663   1.484       .  S
O522       Cr527   1.994       .  S
O523       Cr527   1.995       .  S
O523        C524   1.262       .  A
C524        C580   1.467       .  S
Cr525       O528   1.754       .  S
Cr526       O528   1.771       .  S
Cr527       O528   1.771       .  S
C529        C530   1.404       .  A
C529        C534   1.394       .  A
C529        H536   1.084       .  S
C530        C531   1.403       .  A
C531        C532   1.404       .  A
C531        F538   1.357       .  S
C532        C533   1.411       .  A
C532        H537   1.083       .  S
C533        C534   1.406       .  A
C534        F535   1.358       .  S
C539        C540   1.408       .  A
C539        C544   1.408       .  A
C539        H546   1.083       .  S
C540        C541   1.408       .  A
C541        C542   1.396       .  A
C541        F548   1.358       .  S
C542        C543   1.402       .  A
C542        H547   1.084       .  S
C543        C544   1.406       .  A
C544        F545   1.357       .  S
C549        C550   1.399       .  A
C549        C554   1.400       .  A
C549        H556   1.083       .  S
C550        C551   1.403       .  A
C551        C552   1.389       .  A
C551        F558   1.352       .  S
C552        C553   1.399       .  A
C552        H557   1.083       .  S
C553        C554   1.413       .  A
C554        F555   1.357       .  S
C559        C560   1.402       .  A
C559        C564   1.393       .  A
C559        H566   1.084       .  S
C560        C561   1.404       .  A
C561        C562   1.404       .  A
C561        F568   1.357       .  S
C562        C563   1.408       .  A
C562        H567   1.083       .  S
C563        C564   1.406       .  A
C564        F565   1.357       .  S
C569        C570   1.403       .  A
C569        C574   1.396       .  A
C569        H576   1.084       .  S
C570        C571   1.411       .  A
C571        C572   1.399       .  A
C571        F578   1.357       .  S
C572        C573   1.399       .  A
C572        H577   1.084       .  S
C573        C574   1.404       .  A
C574        F575   1.357       .  S
C579        C580   1.405       .  A
C579        C584   1.395       .  A
C579        H586   1.083       .  S
C580        C581   1.400       .  A
C581        C582   1.391       .  A
C581        F588   1.354       .  S
C582        C583   1.404       .  A
C582        H587   1.084       .  S
C583        C584   1.404       .  A
C584        F585   1.357       .  S
C589        C590   1.403       .  A
C589        C594   1.398       .  A
C589        H596   1.082       .  S
C590        C591   1.403       .  A
C591        C592   1.398       .  A
C591        F598   1.357       .  S
C592        C593   1.406       .  A
C592        H597   1.083       .  S
C593        C594   1.406       .  A
C594        F595   1.358       .  S
C599        C600   1.400       .  A
C599        C604   1.398       .  A
C599        H606   1.084       .  S
C600        C601   1.405       .  A
C601        C602   1.397       .  A
C601        F608   1.357       .  S
C602        C603   1.400       .  A
C602        H607   1.084       .  S
C603        C604   1.405       .  A
C604        F605   1.357       .  S
C609        C610   1.403       .  A
C609        C614   1.395       .  A
C609        H616   1.084       .  S
C610        C611   1.413       .  A
C611        C612   1.407       .  A
C611        F618   1.357       .  S
C612        C613   1.403       .  A
C612        H617   1.083       .  S
C613        C614   1.408       .  A
C614        F615   1.358       .  S
C619        C620   1.402       .  A
C619        C624   1.406       .  A
C619        H626   1.083       .  S
C620        C621   1.405       .  A
C621        C622   1.387       .  A
C621        F628   1.356       .  S
C622        C623   1.402       .  A
C622        H627   1.083       .  S
C623        C624   1.414       .  A
C624        F625   1.357       .  S
C629        C630   1.401       .  A
C629        C634   1.399       .  A
C629        H636   1.084       .  S
C630        C631   1.406       .  A
C631        C632   1.403       .  A
C631        F638   1.358       .  S
C632        C633   1.404       .  A
C632        H637   1.084       .  S
C633        C634   1.407       .  A
C634        F635   1.358       .  S
C639        C640   1.401       .  A
C639        C644   1.395       .  A
C639        H646   1.084       .  S
C640        C641   1.404       .  A
C641        C642   1.401       .  A
C641        F648   1.357       .  S
C642        C643   1.405       .  A
C642        H647   1.083       .  S
C643        C644   1.407       .  A
C644        F645   1.357       .  S
C649        C650   1.405       .  A
C649        C654   1.398       .  A
C649        H656   1.083       .  S
C650        C651   1.406       .  A
C651        C652   1.398       .  A
C651        F658   1.358       .  S
C652        C653   1.404       .  A
C652        H657   1.084       .  S
C653        C654   1.404       .  A
C654        F655   1.358       .  S
C659        C660   1.402       .  A
C659        C664   1.388       .  A
C659        H666   1.084       .  S
C660        C661   1.406       .  A
C661        C662   1.406       .  A
C661        F668   1.357       .  S
C662        C663   1.410       .  A
C662        H667   1.083       .  S
C663        C664   1.410       .  A
C664        F665   1.358       .  S
C669        C670   1.400       .  A
C669        C674   1.398       .  A
C669        H676   1.083       .  S
C670        C671   1.405       .  A
C671        C672   1.403       .  A
C671        F678   1.357       .  S
C672        C673   1.404       .  A
C672        H677   1.083       .  S
C673        C674   1.407       .  A
C674        F675   1.357       .  S
C679        C680   1.402       .  A
C679        C684   1.393       .  A
C679        H686   1.084   1_554  S
C680        C681   1.402       .  A
C681        C682   1.402       .  A
C681        F688   1.357       .  S
C682        C683   1.409       .  A
C682        H687   1.082       .  S
C683        C684   1.408       .  A
C684        F685   1.358   1_554  S
C689        C690   1.406   1_455  A
C689        C694   1.391       .  A
C689        H696   1.077       .  S
C690        C691   1.405       .  A
C691        C692   1.399       .  A
C691        F698   1.357       .  S
C692        C693   1.408   1_655  A
C692        H697   1.077       .  S
C693        C694   1.404       .  A
C694        F695   1.357       .  S
C699        C700   1.402       .  A
C699        C704   1.398       .  A
C699        H706   1.084       .  S
C700        C701   1.404       .  A
C701        C702   1.399       .  A
C701        F708   1.357       .  S
C702        C703   1.401       .  A
C702        H707   1.083       .  S
C703        C704   1.404       .  A
C704        F705   1.358       .  S
C709        C710   1.402       .  A
C709        C714   1.395       .  A
C709        H716   1.083       .  S
C710        C711   1.410       .  A
C711        C712   1.394       .  A
C711        F718   1.358       .  S
C712        C713   1.398       .  A
C712        H717   1.084       .  S
C713        C714   1.404       .  A
C714        F715   1.356       .  S
C719        C720   1.406       .  A
C719        C724   1.398       .  A
C719        H726   1.083       .  S
C720        C721   1.405   1_554  A
C721        C722   1.398       .  A
C721        F728   1.357       .  S
C722        C723   1.401   1_556  A
C722        H727   1.083       .  S
C723        C724   1.401       .  A
C724        F725   1.358       .  S
C729        C730   1.399       .  A
C729        C734   1.392       .  A
C729        H736   1.084       .  S
C730        C731   1.403       .  A
C731        C732   1.401       .  A
C731        F738   1.357       .  S
C732        C733   1.406       .  A
C732        H737   1.083       .  S
C733        C734   1.406       .  A
C734        F735   1.357       .  S
C739        C740   1.404       .  A
C739        C744   1.392       .  A
C739        H746   1.084       .  S
C740        C741   1.406   1_554  A
C741        C742   1.399       .  A
C741        F748   1.357       .  S
C742        C743   1.404   1_556  A
C742        H747   1.083       .  S
C743        C744   1.402       .  A
C744        F745   1.357       .  S
C749        C750   1.404       .  A
C749        C754   1.398       .  A
C749        H756   1.082   1_556  S
C750        C751   1.405       .  A
C751        C752   1.394       .  A
C751        F758   1.358       .  S
C752        C753   1.403       .  A
C752        H757   1.083       .  S
C753        C754   1.403       .  A
C754        F755   1.357   1_556  S
C759        C760   1.403       .  A
C759        C764   1.393       .  A
C759        H766   1.084       .  S
C760        C761   1.402       .  A
C761        C762   1.395       .  A
C761        F768   1.358       .  S
C762        C763   1.405       .  A
C762        H767   1.084       .  S
C763        C764   1.402       .  A
C764        F765   1.357       .  S
C769        C770   1.407       .  A
C769        C774   1.405       .  A
C769        H776   1.083       .  S
C770        C771   1.406       .  A
C771        C772   1.396       .  A
C771        F778   1.357       .  S
C772        C773   1.402       .  A
C772        H777   1.084       .  S
C773        C774   1.405       .  A
C774        F775   1.357       .  S
C779        C780   1.402       .  A
C779        C784   1.396       .  A
C779        H786   1.084   1_455  S
C780        C781   1.404       .  A
C781        C782   1.403       .  A
C781        F788   1.357       .  S
C782        C783   1.407       .  A
C782        H787   1.084       .  S
C783        C784   1.407       .  A
C784        F785   1.358   1_455  S
C789        C790   1.400       .  A
C789        C794   1.397       .  A
C789        H796   1.083       .  S
C790        C791   1.405   1_455  A
C791        C792   1.397       .  A
C791        F798   1.357       .  S
C792        C793   1.400       .  A
C792        H797   1.084       .  S
C793        C794   1.405   1_655  A
C794        F795   1.357       .  S
C799        C800   1.402       .  A
C799        C804   1.386       .  A
C799        H806   1.083       .  S
C800        C801   1.413       .  A
C801        C802   1.406       .  A
C801        F808   1.357       .  S
C802        C803   1.402       .  A
C802        H807   1.083       .  S
C803        C804   1.405       .  A
C804        F805   1.356       .  S
C809        C810   1.401       .  A
C809        C814   1.399       .  A
C809        H816   1.083       .  S
C810        C811   1.408       .  A
C811        C812   1.398       .  A
C811        F818   1.358       .  S
C812        C813   1.402       .  A
C812        H817   1.083       .  S
C813        C814   1.409       .  A
C814        F815   1.358       .  S
C819        C820   1.403       .  A
C819        C824   1.391       .  A
C819        H826   1.084       .  S
C820        C821   1.409       .  A
C821        C822   1.405       .  A
C821        F828   1.357       .  S
C822        C823   1.405       .  A
C822        H827   1.083       .  S
C823        C824   1.401       .  A
C824        F825   1.356       .  S
C829        C830   1.406       .  A
C829        C834   1.403       .  A
C829        H836   1.083       .  S
C830        C831   1.405       .  A
C831        C832   1.398       .  A
C831        F838   1.358       .  S
C832        C833   1.404       .  A
C832        H837   1.084       .  S
C833        C834   1.405       .  A
C834        F835   1.358       .  S
C839        C840   1.403       .  A
C839        C844   1.397       .  A
C839        H846   1.083       .  S
C840        C841   1.407       .  A
C841        C842   1.396       .  A
C841        F848   1.358   1_554  S
C842        C843   1.400       .  A
C842        H847   1.084       .  S
C843        C844   1.405       .  A
C844        F845   1.358       .  S
C849        C850   1.406       .  A
C849        C854   1.392       .  A
C849        H856   1.083       .  S
C850        C851   1.403       .  A
C851        C852   1.393       .  A
C851        F858   1.358       .  S
C852        C853   1.408       .  A
C852        H857   1.083       .  S
C853        C854   1.403       .  A
C854        F855   1.357       .  S
C859        C860   1.403       .  A
C859        C864   1.397       .  A
C859        H866   1.083   1_545  S
C860        C861   1.409       .  A
C861        C862   1.400       .  A
C861        F868   1.358       .  S
C862        C863   1.401       .  A
C862        H867   1.083       .  S
C863        C864   1.404       .  A
C864        F865   1.358   1_545  S
C869        C870   1.398       .  A
C869        C874   1.391       .  A
C869        H876   1.075       .  S
C870        C871   1.400   1_554  A
C871        C872   1.402   1_556  A
C871        F878   1.357       .  S
C872        C873   1.412       .  A
C872        H877   1.083   1_554  S
C873        C874   1.405       .  A
C874        F875   1.356       .  S
C879        C880   1.400       .  A
C879        C884   1.395       .  A
C879        H886   1.082       .  S
C880        C881   1.402       .  A
C881        C882   1.402       .  A
C881        F888   1.357       .  S
C882        C883   1.408       .  A
C882        H887   1.081       .  S
C883        C884   1.405       .  A
C884        F885   1.353       .  S
C889        C890   1.402       .  A
C889        C894   1.388       .  A
C889        H896   1.083       .  S
C890        C891   1.409       .  A
C891        C892   1.401       .  A
C891        F898   1.357       .  S
C892        C893   1.406       .  A
C892        H897   1.083       .  S
C893        C894   1.408       .  A
C894        F895   1.358       .  S
C899        C900   1.408   1_545  A
C899        C904   1.397       .  A
C899        H906   1.083       .  S
C900        C901   1.405       .  A
C901        C902   1.394       .  A
C901        F908   1.356       .  S
C902        C903   1.400   1_565  A
C902        H907   1.082       .  S
C903        C904   1.400       .  A
C904        F905   1.357       .  S
C909        C910   1.403       .  A
C909        C914   1.396   1_556  A
C909        H916   1.083       .  S
C910        C911   1.408       .  A
C911        C912   1.396       .  A
C911        F918   1.358       .  S
C912        C913   1.400   1_556  A
C912        H917   1.084   1_556  S
C913        C914   1.403       .  A
C914        F915   1.358       .  S
C919        C920   1.402       .  A
C919        C924   1.392       .  A
C919        H926   1.084   1_556  S
C920        C921   1.411       .  A
C921        C922   1.402       .  A
C921        F928   1.357       .  S
C922        C923   1.401       .  A
C922        H927   1.083       .  S
C923        C924   1.404       .  A
C924        F925   1.356   1_556  S
C929        C930   1.407   1_565  A
C929        C934   1.398       .  A
C929        H936   1.083       .  S
C930        C931   1.406       .  A
C931        C932   1.397       .  A
C931        F938   1.357       .  S
C932        C933   1.402   1_545  A
C932        H937   1.084       .  S
C933        C934   1.401       .  A
C934        F935   1.358       .  S
C939        C940   1.400       .  A
C939        C944   1.402       .  A
C939        H946   1.083       .  S
C940        C941   1.405       .  A
C941        C942   1.393       .  A
C941        F948   1.359   1_565  S
C942        C943   1.403       .  A
C942        H947   1.083   1_565  S
C943        C944   1.412       .  A
C944        F945   1.357       .  S
C949        C950   1.407       .  A
C949        C954   1.400       .  A
C949        H956   1.084       .  S
C950        C951   1.404       .  A
C951        C952   1.400       .  A
C951        F958   1.357       .  S
C952        C953   1.406       .  A
C952        H957   1.083       .  S
C953        C954   1.405       .  A
C954        F955   1.358       .  S
C959        C960   1.403       .  A
C959        C964   1.391       .  A
C959        H966   1.083       .  S
C960        C961   1.411       .  A
C961        C962   1.404       .  A
C961        F968   1.357       .  S
C962        C963   1.403       .  A
C962        H967   1.083       .  S
C963        C964   1.403       .  A
C964        F965   1.358       .  S
C969        C970   1.404       .  A
C969        C974   1.397       .  A
C969        H976   1.084       .  S
C970        C971   1.406       .  A
C971        C972   1.404       .  A
C971        F978   1.358       .  S
C972        C973   1.407       .  A
C972        H977   1.084       .  S
C973        C974   1.404       .  A
C974        F975   1.357       .  S
C979        C980   1.401   1_556  A
C979        C984   1.389       .  A
C979        H986   1.081       .  S
C980        C981   1.402       .  A
C981        C982   1.406       .  A
C981        F988   1.357       .  S
C982        C983   1.412   1_554  A
C982        H987   1.083       .  S
C983        C984   1.408       .  A
C984        F985   1.358       .  S
C989        C990   1.404       .  A
C989        C994   1.400       .  A
C989        H996   1.084       .  S
C990        C991   1.400   1_556  A
C991        C992   1.394       .  A
C991        F998   1.358       .  S
C992        C993   1.407       .  A
C992        H997   1.083       .  S
C993        C994   1.408   1_554  A
C994        F995   1.358       .  S
C999       C1000   1.407       .  A
C999       C1004   1.399       .  A
C999       H1006   1.083       .  S
C1000      C1001   1.406       .  A
C1001      C1002   1.395       .  A
C1001      F1008   1.356       .  S
C1002      C1003   1.401       .  A
C1002      H1007   1.083       .  S
C1003      C1004   1.402       .  A
C1004      F1005   1.357       .  S
C1009      C1010   1.401       .  A
C1009      C1014   1.400       .  A
C1009      H1016   1.083       .  S
C1010      C1011   1.412       .  A
C1011      C1012   1.394       .  A
C1011      F1018   1.358       .  S
C1012      C1013   1.401       .  A
C1012      H1017   1.083       .  S
C1013      C1014   1.413       .  A
C1014      F1015   1.357       .  S
C1019      C1020   1.406       .  A
C1019      C1024   1.398       .  A
C1019      H1026   1.084       .  S
C1020      C1021   1.403       .  A
C1021      C1022   1.400       .  A
C1021      F1028   1.357       .  S
C1022      C1023   1.407       .  A
C1022      H1027   1.083       .  S
C1023      C1024   1.404       .  A
C1024      F1025   1.358       .  S
C1029      C1030   1.400       .  A
C1029      C1034   1.394       .  A
C1029      H1036   1.083       .  S
C1030      C1031   1.408       .  A
C1031      C1032   1.396       .  A
C1031      F1038   1.358       .  S
C1032      C1033   1.403       .  A
C1032      H1037   1.083       .  S
C1033      C1034   1.412       .  A
C1034      F1035   1.358       .  S
C1039      C1040   1.410       .  A
C1039      C1044   1.404       .  A
C1039      H1046   1.083       .  S
C1040      C1041   1.405       .  A
C1041      C1042   1.397       .  A
C1041      F1048   1.357       .  S
C1042      C1043   1.406       .  A
C1042      H1047   1.084       .  S
C1043      C1044   1.404       .  A
C1044      F1045   1.357       .  S
C1049      C1050   1.401       .  A
C1049      C1054   1.397       .  A
C1049      H1056   1.083       .  S
C1050      C1051   1.408       .  A
C1051      C1052   1.398       .  A
C1051      F1058   1.358   1_545  S
C1052      C1053   1.400       .  A
C1052      H1057   1.083       .  S
C1053      C1054   1.408       .  A
C1054      F1055   1.358       .  S
C1059      C1060   1.401   1_545  A
C1059      C1064   1.395       .  A
C1059      H1066   1.083       .  S
C1060      C1061   1.407       .  A
C1061      C1062   1.395   1_565  A
C1061      F1068   1.358       .  S
C1062      C1063   1.399       .  A
C1062      H1067   1.084   1_545  S
C1063      C1064   1.405       .  A
C1064      F1065   1.358       .  S
C1069      C1070   1.410       .  A
C1069      C1074   1.404       .  A
C1069      H1076   1.083       .  S
C1070      C1071   1.406       .  A
C1071      C1072   1.395       .  A
C1071      F1078   1.358   1_455  S
C1072      C1073   1.403       .  A
C1072      H1077   1.083   1_455  S
C1073      C1074   1.403       .  A
C1074      F1075   1.357       .  S
C1079      C1080   1.405       .  A
C1079      C1084   1.387       .  A
C1079      H1086   1.083       .  S
C1080      C1081   1.410   1_455  A
C1081      C1082   1.404       .  A
C1081      F1088   1.357       .  S
C1082      C1083   1.405       .  A
C1082      H1087   1.083       .  S
C1083      C1084   1.404   1_655  A
C1084      F1085   1.359       .  S
C1089      C1090   1.399       .  A
C1089      C1094   1.401       .  A
C1089      H1096   1.083       .  S
C1090      C1091   1.399   1_565  A
C1091      C1092   1.391       .  A
C1091      F1098   1.350       .  S
C1092      C1093   1.401       .  A
C1092      H1097   1.082       .  S
C1093      C1094   1.414   1_545  A
C1094      F1095   1.357       .  S
C1099      C1100   1.402       .  A
C1099      C1104   1.399   1_655  A
C1099      H1106   1.083       .  S
C1100      C1101   1.407       .  A
C1101      C1102   1.398       .  A
C1101      F1108   1.358       .  S
C1102      C1103   1.402       .  A
C1102      H1107   1.083       .  S
C1103      C1104   1.407   1_655  A
C1104      F1105   1.357       .  S
C1109      C1110   1.401       .  A
C1109      C1114   1.400       .  A
C1109      H1116   1.083       .  S
C1110      C1111   1.400       .  A
C1111      C1112   1.391       .  A
C1111      F1118   1.358       .  S
C1112      C1113   1.401       .  A
C1112      H1117   1.076       .  S
C1113      C1114   1.409       .  A
C1114      F1115   1.357       .  S
C1119      C1120   1.399       .  A
C1119      C1124   1.391       .  A
C1119      H1126   1.083       .  S
C1120      C1121   1.410       .  A
C1121      C1122   1.398       .  A
C1121      F1128   1.358       .  S
C1122      C1123   1.399       .  A
C1122      H1127   1.084       .  S
C1123      C1124   1.405       .  A
C1124      F1125   1.358       .  S
C1129      C1130   1.404       .  A
C1129      C1134   1.395       .  A
C1129      H1136   1.083       .  S
C1130      C1131   1.411   1_655  A
C1131      C1132   1.401       .  A
C1131      F1138   1.357       .  S
C1132      C1133   1.400       .  A
C1132      H1137   1.083       .  S
C1133      C1134   1.402   1_455  A
C1134      F1135   1.356       .  S
C1139      C1140   1.407       .  A
C1139      C1144   1.400       .  A
C1139      H1146   1.083       .  S
C1140      C1141   1.406   1_565  A
C1141      C1142   1.386       .  A
C1141      F1148   1.358       .  S
C1142      C1143   1.404   1_545  A
C1142      H1147   1.083       .  S
C1143      C1144   1.406       .  A
C1144      F1145   1.357       .  S
C1149      C1150   1.401       .  A
C1149      C1154   1.400       .  A
C1149      H1156   1.083       .  S
C1150      C1151   1.406       .  A
C1151      C1152   1.402       .  A
C1151      F1158   1.357       .  S
C1152      C1153   1.403       .  A
C1152      H1157   1.083       .  S
C1153      C1154   1.406       .  A
C1154      F1155   1.357   1_565  S
C1159      C1160   1.405   1_655  A
C1159      C1164   1.393       .  A
C1159      H1166   1.083       .  S
C1160      C1161   1.399       .  A
C1161      C1162   1.390       .  A
C1161      F1168   1.356       .  S
C1162      C1163   1.404   1_455  A
C1162      H1167   1.084       .  S
C1163      C1164   1.402       .  A
C1164      F1165   1.358       .  S
C1169      C1170   1.400       .  A
C1169      C1174   1.394       .  A
C1169      H1176   1.084       .  S
C1170      C1171   1.404       .  A
C1171      C1172   1.395       .  A
C1171      F1178   1.358   1_655  S
C1172      C1173   1.403       .  A
C1172      H1177   1.084   1_655  S
C1173      C1174   1.408       .  A
C1174      F1175   1.358       .  S
C1179      C1180   1.405       .  A
C1179      C1184   1.396       .  A
C1179      H1186   1.083       .  S
C1180      C1181   1.403       .  A
C1181      C1182   1.392       .  A
C1181      F1188   1.358       .  S
C1182      C1183   1.407       .  A
C1182      H1187   1.083       .  S
C1183      C1184   1.406       .  A
C1184      F1185   1.357       .  S
C1189      C1190   1.403       .  A
C1189      C1194   1.400       .  A
C1189      H1196   1.083       .  S
C1190      C1191   1.403       .  A
C1191      C1192   1.400       .  A
C1191      F1198   1.358       .  S
C1192      C1193   1.407       .  A
C1192      H1197   1.083       .  S
C1193      C1194   1.408       .  A
C1194      F1195   1.357       .  S
C1199      C1200   1.407       .  A
C1199      C1204   1.404       .  A
C1199      H1206   1.083       .  S
C1200      C1201   1.405       .  A
C1201      C1202   1.394       .  A
C1201      F1208   1.357       .  S
C1202      C1203   1.402       .  A
C1202      H1207   1.084       .  S
C1203      C1204   1.405       .  A
C1204      F1205   1.358       .  S
C1209      C1210   1.400       .  A
C1209      C1214   1.391       .  A
C1209      H1216   1.084   1_545  S
C1210      C1211   1.404       .  A
C1211      C1212   1.402       .  A
C1211      F1218   1.357       .  S
C1212      C1213   1.406       .  A
C1212      H1217   1.083       .  S
C1213      C1214   1.405       .  A
C1214      F1215   1.358   1_545  S
C1219      C1220   1.403   1_565  A
C1219      C1224   1.396       .  A
C1219      H1226   1.082       .  S
C1220      C1221   1.403       .  A
C1221      C1222   1.402       .  A
C1221      F1228   1.357       .  S
C1222      C1223   1.405   1_545  A
C1222      H1227   1.083       .  S
C1223      C1224   1.402       .  A
C1224      F1225   1.358       .  S
C1229      C1230   1.405       .  A
C1229      C1234   1.394       .  A
C1229      H1236   1.084       .  S
C1230      C1231   1.403       .  A
C1231      C1232   1.396       .  A
C1231      F1238   1.357       .  S
C1232      C1233   1.404       .  A
C1232      H1237   1.084   1_565  S
C1233      C1234   1.401       .  A
C1234      F1235   1.358       .  S
C1239      C1240   1.403       .  A
C1239      C1244   1.407       .  A
C1239      H1246   1.083       .  S
C1240      C1241   1.403       .  A
C1241      C1242   1.390       .  A
C1241      F1248   1.355       .  S
C1242      C1243   1.403       .  A
C1242      H1247   1.082       .  S
C1243      C1244   1.413       .  A
C1244      F1245   1.357       .  S
