geometry optimzed in LAMMPS
_audit_creation_date              2020-12-01 
_audit_creation_method            'lammps2cif' 
_symmetry_space_group_name_H-M    'P1' 
_symmetry_Int_Tables_number       1 
_symmetry_cell_setting            triclinic 
loop_ 
_symmetry_equiv_pos_as_xyz 
  x,y,z 
_cell_length_a                    30.13732112 
_cell_length_b                    30.796339519563848 
_cell_length_c                    30.849829871386447 
_cell_angle_alpha                 87.65717413858806 
_cell_angle_beta                  87.818249060973 
_cell_angle_gamma                 87.18221372268793 
loop_ 
_atom_site_label 
_atom_site_type_symbol 
_atom_site_fract_x 
_atom_site_fract_y 
_atom_site_fract_z 
_atom_site_charge 
C1          C  0.40917766  0.15942666  0.34086406     0.02400
C2          C  0.41277478  0.18495350  0.37732998    -0.13700
C3          C  0.38228088  0.18084413  0.41316093    -0.00100
C4          C  0.35012411  0.14903098  0.41324207    -0.12300
C5          C  0.34798958  0.12125228  0.37829585     0.02400
C6          C  0.37674485  0.12792999  0.34191869    -0.11700
H7          H  0.43789742  0.20877204  0.37715902     0.08000
H8          H  0.32750704  0.14530941  0.44112662     0.05500
H9          H  0.37477634  0.10751519  0.31436506     0.05400
C10         C  0.41293391  0.38119542  0.17942387     0.02400
C11         C  0.37626830  0.41139341  0.18328907    -0.13700
C12         C  0.33903490  0.40806025  0.15769102    -0.00100
C13         C  0.34028457  0.37618889  0.12605298    -0.12300
C14         C  0.37765138  0.34762338  0.11953012     0.02400
C15         C  0.41327042  0.34948510  0.14761973    -0.11700
H16         H  0.37610325  0.43636164  0.20690206     0.08000
H17         H  0.31225769  0.37467551  0.10528263     0.05500
H18         H  0.44184535  0.32701812  0.14416526     0.05400
C19         C  0.18149324  0.41305066  0.38366526     0.02400
C20         C  0.18573777  0.37728528  0.41381982    -0.13700
C21         C  0.15969848  0.34087156  0.41031292    -0.00100
C22         C  0.12751423  0.34204869  0.37822512    -0.12300
C23         C  0.12077930  0.37840243  0.34970946     0.02400
C24         C  0.14911094  0.41316611  0.35185320    -0.11700
H25         H  0.21001095  0.37713880  0.43869660     0.08000
H26         H  0.10658809  0.31464444  0.37630166     0.05500
H27         H  0.14542503  0.44093284  0.32938578     0.05400
C28         C  0.12232627  0.06038707  0.08842765     0.02400
C29         C  0.08860990  0.05976268  0.12137638    -0.13700
C30         C  0.05484932  0.09284515  0.12317111    -0.00100
C31         C  0.05437720  0.12655417  0.09066433    -0.12300
C32         C  0.08751640  0.12764555  0.05723335     0.02400
C33         C  0.12123710  0.09415049  0.05634053    -0.11700
H34         H  0.09081480  0.03557476  0.14784696     0.08000
H35         H  0.03035506  0.15377539  0.09333693     0.05500
H36         H  0.14869460  0.09624571  0.03272073     0.05400
O37         O  0.98601374  0.11174020  0.16065552    -0.73700
O38         O  0.42271911  0.16524616  0.26445379    -0.74600
O39         O  0.48226825  0.19430988  0.19160555    -0.63300
O40         O  0.42762764  0.08221357  0.23462333    -0.71700
O41         O  0.98781945  0.06838145  0.27318098    -0.71200
O42         O  0.04003090  0.17732766  0.23252528    -0.62500
O43         O  0.48110330  0.14987773  0.30505297    -0.75000
O44         O  0.04485028  0.09539335  0.20037645    -0.73800
Cu45       Cu  0.45258082  0.13903865  0.21134445     1.04600
Cu46       Cu  0.01541517  0.12228567  0.25394839     1.04300
C47         C  0.02674308  0.09858697  0.16338468     0.92500
C48         C  0.43981729  0.16109020  0.30182493     0.91700
C49         C  0.52175463  0.20105621  0.20283326     0.83800
C50         C  0.44810513  0.06042637  0.26462179     0.90100
O51         O  0.17787127  0.23258652  0.03992139    -0.73700
O52         O  0.06671260  0.27833229  0.98882764    -0.74600
O53         O  0.09230105  0.20484145  0.04611989    -0.63300
O54         O  0.15125096  0.30609745  0.48130897    -0.71700
O55         O  0.16354657  0.26429487  0.42476556    -0.71200
O56         O  0.10661108  0.16369738  0.98939011    -0.62500
O57         O  0.07798204  0.23778960  0.43116531    -0.75000
O58         O  0.19237859  0.19096956  0.48362656    -0.73800
Cu59       Cu  0.12165222  0.25668981  0.01598413     1.04600
Cu60       Cu  0.13569469  0.21264139  0.45530248     1.04300
C61         C  0.20081797  0.20200040  0.52191025     0.92500
C62         C  0.05741957  0.26929006  0.45039035     0.91700
C63         C  0.09388240  0.16748196  0.02913763     0.83800
C64         C  0.16113710  0.30203120  0.44085886     0.90100
O65         O  0.26089513  0.42349571  0.16059551    -0.73700
O66         O  0.15885634  0.99149142  0.10533990    -0.74600
O67         O  0.23487410  0.43365816  0.07667222    -0.63300
O68         O  0.18614811  0.48233236  0.18977380    -0.71700
O69         O  0.22951158  0.03812425  0.17823880    -0.71200
O70         O  0.27565498  0.99176630  0.06820241    -0.62500
O71         O  0.20092375  0.04839778  0.09460536    -0.75000
O72         O  0.30398173  0.47974589  0.15073139    -0.73800
Cu73       Cu  0.20854710  0.45579051  0.13353681     1.04600
Cu74       Cu  0.25373665  0.01644082  0.12268479     1.04300
C75         C  0.29953148  0.43905950  0.15909635     0.92500
C76         C  0.16283905  0.03166875  0.09453087     0.91700
C77         C  0.26699750  0.45358852  0.05780952     0.83800
C78         C  0.19808489  0.51991888  0.19966908     0.90100
O79         O  0.98953737  0.44150820  0.29301756    -0.73700
O80         O  0.06544366  0.38270232  0.20299495    -0.74600
O81         O  0.47525215  0.41400342  0.20910262    -0.63300
O82         O  0.08013266  0.41026941  0.28918778    -0.71700
O83         O  0.05475145  0.35065628  0.32196179    -0.71200
O84         O  0.45755536  0.34869337  0.23534092    -0.62500
O85         O  0.54771630  0.32074793  0.23739688    -0.75000
O86         O  0.46213786  0.37968173  0.31930219    -0.73800
Cu87       Cu  0.02863082  0.41442682  0.24790794     1.04600
Cu88       Cu  0.50527304  0.34769565  0.27977784     1.04300
C89         C  0.46106610  0.42105128  0.31672527     0.92500
C90         C  0.56699835  0.34133519  0.20572590     0.91700
C91         C  0.45032340  0.38146827  0.20934479     0.83800
C92         C  0.08360445  0.37989911  0.31871316     0.90100
O93         O  0.21042882  0.47503356  0.41598866    -0.73700
O94         O  0.28738515  0.08062648  0.41021203    -0.74600
O95         O  0.19939813  0.06249054  0.38357227    -0.63300
O96         O  0.29617100  0.99255291  0.44154971    -0.71700
O97         O  0.32316131  0.46571497  0.37961386    -0.71200
O98         O  0.23472022  0.54517953  0.32161382    -0.62500
O99         O  0.32119772  0.05593359  0.35050672    -0.75000
O100        O  0.23705895  0.45745472  0.35064873    -0.73800
Cu101      Cu  0.24763186  0.02874784  0.41514356     1.04600
Cu102      Cu  0.28029072  0.50584242  0.34835151     1.04300
C103        C  0.21128557  0.45004174  0.38376220     0.92500
C104        C  0.31721436  0.08439347  0.37973935     0.91700
C105        C  0.20160652  0.06312508  0.34225359     0.83800
C106        C  0.32136701  0.96519847  0.42084418     0.90100
O107        O  0.34789098  0.23491827  0.45836001    -0.73700
O108        O  0.34862558  0.32007770  0.05496160    -0.74600
O109        O  0.37514106  0.32020431  0.46397063    -0.63300
O110        O  0.32165525  0.23456910  0.54679215    -0.71700
O111        O  0.38657862  0.20129833  0.06218444    -0.71200
O112        O  0.44022864  0.29603295  0.98926071    -0.62500
O113        O  0.41133339  0.28849713  0.07832888    -0.75000
O114        O  0.41633680  0.21096716  0.47378068    -0.73800
Cu115      Cu  0.34600421  0.27860312  0.50583090     1.04600
Cu116      Cu  0.41607332  0.24857999  0.02686667     1.04300
C117        C  0.38241438  0.21038781  0.45005939     0.92500
C118        C  0.37932377  0.31714870  0.08270060     0.91700
C119        C  0.41735271  0.31949753  0.46222336     0.83800
C120        C  0.34427505  0.20289477  0.56448080     0.90100
C121        C  0.30794605  0.39877543  0.45691032    -0.14100
C122        C  0.34102910  0.92865463  0.44639412     0.08100
C123        C  0.36448065  0.94235471  0.48116547    -0.14100
C124        C  0.34109274  0.94724267  0.02070220    -0.14100
C125        C  0.29732969  0.43289643  0.02560822     0.08100
C126        C  0.28312729  0.40368950  0.99601243    -0.14100
H127        H  0.29335194  0.38187666  0.43125436     0.12100
H128        H  0.39435693  0.96013003  0.47503246     0.12100
H129        H  0.35486091  0.96651508  0.04507645     0.12100
H130        H  0.25128114  0.38911679  0.00072369     0.12100
C131        C  0.18535823  0.08746863  0.24109472    -0.14100
C132        C  0.17588719  0.54366041  0.23557783     0.08100
C133        C  0.14793266  0.52309149  0.26665112    -0.14100
C134        C  0.13902008  0.54261294  0.30653453    -0.14100
C135        C  0.16389708  0.07819665  0.31633685     0.08100
C136        C  0.17648571  0.10582207  0.28134512    -0.14100
H137        H  0.20353393  0.10587431  0.21620874     0.12100
H138        H  0.13694692  0.49071241  0.26201972     0.12100
H139        H  0.12353537  0.52340656  0.33262627     0.12100
H140        H  0.19077622  0.13651914  0.28732055     0.12100
C141        C  0.01798070  0.34131989  0.44214356    -0.14100
C142        C  0.02420916  0.29812676  0.42866045     0.08100
C143        C  0.99409819  0.28279046  0.90004672    -0.14100
C144        C  0.45318237  0.30607221  0.89527201    -0.14100
C145        C  0.44169036  0.33880147  0.42486316     0.08100
C146        C  0.47664209  0.36315533  0.43737934    -0.14100
H147        H  0.04264200  0.35581944  0.46093820     0.12100
H148        H  0.99975072  0.25125504  0.88611022     0.12100
H149        H  0.42721133  0.29069912  0.87901303     0.12100
H150        H  0.46958258  0.39279986  0.45459792     0.12100
C151        C  0.24241180  0.18914925  0.09007259    -0.14100
C152        C  0.23682972  0.17951851  0.54636417     0.08100
C153        C  0.26804465  0.15056485  0.52645242    -0.14100
C154        C  0.30860785  0.14078787  0.54636411    -0.14100
C155        C  0.31916377  0.16597929  0.58122399     0.08100
C156        C  0.28341005  0.17915280  0.10875841    -0.14100
H157        H  0.21726605  0.20802496  0.10809728     0.12100
H158        H  0.26312050  0.13921338  0.49430017     0.12100
H159        H  0.33498294  0.12425769  0.52764760     0.12100
H160        H  0.28971903  0.19305734  0.13949169     0.12100
C161        C  0.39346686  0.45789144  0.30054909    -0.14100
C162        C  0.42306951  0.44708205  0.33404811     0.08100
C163        C  0.93599234  0.48163586  0.35791227    -0.14100
C164        C  0.94029982  0.02185317  0.33602947    -0.14100
C165        C  0.42649028  0.02757714  0.29287583     0.08100
C166        C  0.39810025  0.99766377  0.27720219    -0.14100
H167        H  0.37731175  0.43222915  0.28521109     0.12100
H168        H  0.95379028  0.47512360  0.38751590     0.12100
H169        H  0.95908619  0.04622278  0.35056745     0.12100
H170        H  0.38419409  0.00266304  0.24544380     0.12100
C171        C  0.59205682  0.24029242  0.19270581    -0.14100
C172        C  0.54756430  0.23582880  0.18159600     0.08100
C173        C  0.02833557  0.26671263  0.15229405    -0.14100
C174        C  0.04938771  0.30586096  0.14349245    -0.14100
C175        C  0.58448272  0.31537322  0.16977520     0.08100
C176        C  0.61180073  0.27993820  0.18390298    -0.14100
H177        H  0.60972549  0.21532029  0.21192525     0.12100
H178        H  0.99575579  0.26258203  0.13985815     0.12100
H179        H  0.03096980  0.33207014  0.12661640     0.12100
H180        H  0.64273635  0.28548514  0.19909027     0.12100
C181        C  0.40915549  0.15945124  0.84085811     0.02400
C182        C  0.41275449  0.18497641  0.87732500    -0.13700
C183        C  0.38226177  0.18086561  0.91315683    -0.00100
C184        C  0.35010496  0.14905231  0.91323773    -0.12300
C185        C  0.34796894  0.12127543  0.87829010     0.02400
C186        C  0.37672277  0.12795485  0.84191241    -0.11700
H187        H  0.43787712  0.20879324  0.87715441     0.08000
H188        H  0.32748962  0.14532882  0.94112296     0.05500
H189        H  0.37475405  0.10754076  0.81435849     0.05400
C190        C  0.41293176  0.38119839  0.67941328     0.02400
C191        C  0.37626184  0.41139077  0.68328024    -0.13700
C192        C  0.33902735  0.40805044  0.65768534    -0.00100
C193        C  0.34028057  0.37617854  0.62604715    -0.12300
C194        C  0.37765214  0.34761897  0.61952213     0.02400
C195        C  0.41327198  0.34948761  0.64760951    -0.11700
H196        H  0.37609423  0.43635960  0.70689233     0.08000
H197        H  0.31225301  0.37465978  0.60527911     0.05500
H198        H  0.44185031  0.32702477  0.64415411     0.05400
C199        C  0.18149282  0.41305793  0.88365217     0.02400
C200        C  0.18573852  0.37729022  0.91380428    -0.13700
C201        C  0.15969821  0.34087711  0.91029526    -0.00100
C202        C  0.12751289  0.34205715  0.87820864    -0.12300
C203        C  0.12077704  0.37841291  0.84969605     0.02400
C204        C  0.14910901  0.41317581  0.85184151    -0.11700
H205        H  0.21001159  0.37714210  0.93868067     0.08000
H206        H  0.10658572  0.31465357  0.87628437     0.05500
H207        H  0.14542190  0.44094431  0.82937627     0.05400
C208        C  0.12230877  0.06037315  0.58843558     0.02400
C209        C  0.08859387  0.05975532  0.62138651    -0.13700
C210        C  0.05483858  0.09284354  0.62318138    -0.00100
C211        C  0.05437252  0.12655279  0.59067521    -0.12300
C212        C  0.08751155  0.12763888  0.55724438     0.02400
C213        C  0.12122451  0.09413691  0.55634881    -0.11700
H214        H  0.09079575  0.03556744  0.64785762     0.08000
H215        H  0.03035567  0.15377803  0.59334833     0.05500
H216        H  0.14868143  0.09622743  0.53272825     0.05400
O217        O  0.98600218  0.11174762  0.66065891    -0.73700
O218        O  0.42269855  0.16526251  0.76444786    -0.74600
O219        O  0.48225114  0.19432109  0.69160079    -0.63300
O220        O  0.42760960  0.08222668  0.73462335    -0.71700
O221        O  0.98779600  0.06840232  0.77318997    -0.71200
O222        O  0.04001515  0.17734198  0.73252112    -0.62500
O223        O  0.48108217  0.14990318  0.80505022    -0.75000
O224        O  0.04483430  0.09540067  0.70038592    -0.73800
Cu225      Cu  0.45256388  0.13905046  0.71134258     1.04600
Cu226      Cu  0.01539615  0.12230308  0.75395147     1.04300
C227        C  0.02673017  0.09859099  0.66339265     0.92500
C228        C  0.43979588  0.16111281  0.80181974     0.91700
C229        C  0.52173750  0.20106830  0.70282786     0.83800
C230        C  0.44808402  0.06044246  0.76462566     0.90100
O231        O  0.17787536  0.23258207  0.53994240    -0.73700
O232        O  0.06671703  0.27832431  0.48884258    -0.74600
O233        O  0.09230445  0.20483425  0.54613519    -0.63300
O234        O  0.15124835  0.30610206  0.98129010    -0.71700
O235        O  0.16353911  0.26429979  0.92474585    -0.71200
O236        O  0.10661920  0.16369109  0.48940550    -0.62500
O237        O  0.07797203  0.23779807  0.93114950    -0.75000
O238        O  0.19237087  0.19097293  0.98360570    -0.73800
Cu239      Cu  0.12165589  0.25668373  0.51600205     1.04600
Cu240      Cu  0.13568599  0.21264713  0.95528419     1.04300
C241        C  0.20081156  0.20200351  0.02188918     0.92500
C242        C  0.05741184  0.26929897  0.95037610     0.91700
C243        C  0.09388578  0.16747537  0.52915165     0.83800
C244        C  0.16113380  0.30203584  0.94083997     0.90100
O245        O  0.26088525  0.42347789  0.66059234    -0.73700
O246        O  0.15883631  0.99147393  0.60534473    -0.74600
O247        O  0.23485916  0.43364424  0.57667259    -0.63300
O248        O  0.18613372  0.48230963  0.68977854    -0.71700
O249        O  0.22948876  0.03810460  0.67824077    -0.71200
O250        O  0.27563965  0.99175105  0.56820546    -0.62500
O251        O  0.20090525  0.04837892  0.59460807    -0.75000
O252        O  0.30396627  0.47973291  0.65073449    -0.73800
Cu253      Cu  0.20853278  0.45577226  0.63353909     1.04600
Cu254      Cu  0.25371771  0.01642366  0.62268746     1.04300
C255        C  0.29952015  0.43904512  0.65909395     0.92500
C256        C  0.16281971  0.03165149  0.59453649     0.91700
C257        C  0.26698436  0.45357433  0.55781283     0.83800
C258        C  0.19806586  0.51989823  0.69967240     0.90100
O259        O  0.98953042  0.44151911  0.79300642    -0.73700
O260        O  0.06543894  0.38271309  0.70298328    -0.74600
O261        O  0.47524701  0.41401167  0.70909200    -0.63300
O262        O  0.08012801  0.41028228  0.78917652    -0.71700
O263        O  0.05474828  0.35066841  0.82195035    -0.71200
O264        O  0.45755311  0.34870133  0.73533203    -0.62500
O265        O  0.54771329  0.32075837  0.73738775    -0.75000
O266        O  0.46213509  0.37969041  0.81929282    -0.73800
Cu267      Cu  0.02862573  0.41443809  0.74789657     1.04600
Cu268      Cu  0.50527053  0.34770578  0.77976837     1.04300
C269        C  0.46106053  0.42105994  0.81671529     0.92500
C270        C  0.56699256  0.34134515  0.70571495     0.91700
C271        C  0.45032022  0.38147501  0.70933470     0.83800
C272        C  0.08360092  0.37991142  0.81870130     0.90100
O273        O  0.21042538  0.47504014  0.91597963    -0.73700
O274        O  0.28736552  0.08064576  0.91020370    -0.74600
O275        O  0.19938017  0.06249759  0.88356248    -0.63300
O276        O  0.29616307  0.99257211  0.94153800    -0.71700
O277        O  0.32315544  0.46573573  0.87960270    -0.71200
O278        O  0.23470704  0.54519442  0.82160585    -0.62500
O279        O  0.32118144  0.05595643  0.85049852    -0.75000
O280        O  0.23705440  0.45746842  0.85063730    -0.73800
Cu281      Cu  0.24761910  0.02876154  0.91513326     1.04600
Cu282      Cu  0.28028125  0.50586055  0.84834244     1.04300
C283        C  0.21128321  0.45005058  0.88375137     0.92500
C284        C  0.31719541  0.08441531  0.87973204     0.91700
C285        C  0.20158755  0.06313296  0.84224367     0.83800
C286        C  0.32136031  0.96521980  0.92083104     0.90100
O287        O  0.34787573  0.23493741  0.95836151    -0.73700
O288        O  0.34863074  0.32006644  0.55495433    -0.74600
O289        O  0.37513217  0.32022097  0.96397689    -0.63300
O290        O  0.32164355  0.23458298  0.04679462    -0.71700
O291        O  0.38659040  0.20128920  0.56219007    -0.71200
O292        O  0.44023725  0.29601864  0.48925681    -0.62500
O293        O  0.41133987  0.28849186  0.57832512    -0.75000
O294        O  0.41632259  0.21098455  0.97377602    -0.73800
Cu295      Cu  0.34599394  0.27861876  0.00583554     1.04600
Cu296      Cu  0.41608368  0.24856854  0.52686730     1.04300
C297        C  0.38239823  0.21040702  0.95005707     0.92500
C298        C  0.37932813  0.31714180  0.58269418     0.91700
C299        C  0.41734393  0.31951302  0.96222840     0.83800
C300        C  0.34426329  0.20290485  0.06447686     0.90100
C301        C  0.30794626  0.39879473  0.95689999    -0.14100
C302        C  0.34102557  0.92867674  0.94637938     0.08100
C303        C  0.36448202  0.94237716  0.98114722    -0.14100
C304        C  0.34108482  0.94722391  0.52071653    -0.14100
C305        C  0.29732062  0.43288107  0.52561564     0.08100
C306        C  0.28312241  0.40367204  0.49601992    -0.14100
H307        H  0.29334885  0.38189731  0.93124511     0.12100
H308        H  0.39435604  0.96015419  0.97501024     0.12100
H309        H  0.35484926  0.96649711  0.54509217     0.12100
H310        H  0.25127668  0.38909877  0.50072918     0.12100
C311        C  0.18531907  0.08745332  0.74108234    -0.14100
C312        C  0.17586365  0.54364097  0.73557812     0.08100
C313        C  0.14791744  0.52307041  0.76665758    -0.14100
C314        C  0.13900471  0.54259715  0.80653849    -0.14100
C315        C  0.16387154  0.07818980  0.81632867     0.08100
C316        C  0.17644766  0.10581234  0.78133020    -0.14100
H317        H  0.20348573  0.10585951  0.71619039     0.12100
H318        H  0.13693900  0.49068766  0.76203237     0.12100
H319        H  0.12352727  0.52339162  0.83263515     0.12100
H320        H  0.19073055  0.13651531  0.78729745     0.12100
C321        C  0.01797571  0.34133040  0.94213417    -0.14100
C322        C  0.02419996  0.29813740  0.92864980     0.08100
C323        C  0.99411390  0.28277822  0.40005153    -0.14100
C324        C  0.45319835  0.30606021  0.39526983    -0.14100
C325        C  0.44168078  0.33881424  0.92486629     0.08100
C326        C  0.47663589  0.36316614  0.93737791    -0.14100
H327        H  0.04264146  0.35582862  0.96092447     0.12100
H328        H  0.99977022  0.25124317  0.38611584     0.12100
H329        H  0.42723101  0.29068637  0.37900581     0.12100
H330        H  0.46958053  0.39280999  0.95459852     0.12100
C331        C  0.24242614  0.18915314  0.59009046    -0.14100
C332        C  0.23682164  0.17952012  0.04634383     0.08100
C333        C  0.26804157  0.15057241  0.02643117    -0.14100
C334        C  0.30860386  0.14079797  0.04634548    -0.14100
C335        C  0.31915246  0.16598554  0.08121093     0.08100
C336        C  0.28342561  0.17915404  0.60877325    -0.14100
H337        H  0.21728459  0.20803417  0.60811496     0.12100
H338        H  0.26312156  0.13922439  0.99427681     0.12100
H339        H  0.33498271  0.12427378  0.02762910     0.12100
H340        H  0.28973988  0.19306159  0.63950376     0.12100
C341        C  0.39345966  0.45789664  0.80053756    -0.14100
C342        C  0.42306147  0.44708764  0.83403725     0.08100
C343        C  0.93597797  0.48164048  0.85790535    -0.14100
C344        C  0.94027557  0.02186360  0.83602851    -0.14100
C345        C  0.42646909  0.02758963  0.79287514     0.08100
C346        C  0.39808606  0.99767341  0.77719482    -0.14100
H347        H  0.37731043  0.43223345  0.78519478     0.12100
H348        H  0.95377649  0.47512668  0.88750877     0.12100
H349        H  0.95905664  0.04623434  0.85057129     0.12100
H350        H  0.38418332  0.00267320  0.74543548     0.12100
C351        C  0.59204154  0.24030095  0.69269302    -0.14100
C352        C  0.54754718  0.23583989  0.68158816     0.08100
C353        C  0.02831931  0.26672527  0.65228777    -0.14100
C354        C  0.04937304  0.30587243  0.64348360    -0.14100
C355        C  0.58447068  0.31538215  0.66976244     0.08100
C356        C  0.61178778  0.27994518  0.68388725    -0.14100
H357        H  0.60971097  0.21532749  0.71191063     0.12100
H358        H  0.99573772  0.26259588  0.63985454     0.12100
H359        H  0.03095512  0.33208241  0.62660897     0.12100
H360        H  0.64272611  0.28548987  0.69907038     0.12100
C361        C  0.40917348  0.65942407  0.34086528     0.02400
C362        C  0.41277347  0.68495013  0.37733154    -0.13700
C363        C  0.38227967  0.68084225  0.41316304    -0.00100
C364        C  0.35012053  0.64903125  0.41324420    -0.12300
C365        C  0.34798348  0.62125334  0.37829765     0.02400
C366        C  0.37673849  0.62792978  0.34192012    -0.11700
H367        H  0.43789726  0.70876622  0.37716039     0.08000
H368        H  0.32750350  0.64531061  0.44112908     0.05500
H369        H  0.37476830  0.60751550  0.31436646     0.05400
C370        C  0.41294032  0.88119843  0.17942468     0.02400
C371        C  0.37627537  0.91139740  0.18328915    -0.13700
C372        C  0.33904306  0.90806623  0.15768911    -0.00100
C373        C  0.34029304  0.87619561  0.12605023    -0.12300
C374        C  0.37765911  0.84762883  0.11952830     0.02400
C375        C  0.41327726  0.84948896  0.14761942    -0.11700
H376        H  0.37610991  0.93636476  0.20690324     0.08000
H377        H  0.31226691  0.87468337  0.10527918     0.05500
H378        H  0.44185138  0.82702131  0.14416564     0.05400
C379        C  0.18149918  0.91304807  0.38366886     0.02400
C380        C  0.18574395  0.87728214  0.41382303    -0.13700
C381        C  0.15970360  0.84086885  0.41031670    -0.00100
C382        C  0.12751864  0.84204685  0.37822954    -0.12300
C383        C  0.12078365  0.87840085  0.34971423     0.02400
C384        C  0.14911577  0.91316430  0.35185775    -0.11700
H385        H  0.21001803  0.87713491  0.43869905     0.08000
H386        H  0.10659216  0.81464287  0.37630605     0.05500
H387        H  0.14542961  0.94093130  0.32939065     0.05400
C388        C  0.12232075  0.56038330  0.08842776     0.02400
C389        C  0.08860296  0.55975892  0.12137511    -0.13700
C390        C  0.05484321  0.59284232  0.12316957    -0.00100
C391        C  0.05437360  0.62655244  0.09066372    -0.12300
C392        C  0.08751439  0.62764365  0.05723399     0.02400
C393        C  0.12123390  0.59414752  0.05634154    -0.11700
H394        H  0.09080619  0.53557023  0.14784513     0.08000
H395        H  0.03035245  0.65377415  0.09333618     0.05500
H396        H  0.14869240  0.59624246  0.03272292     0.05400
O397        O  0.98600703  0.61173848  0.16065354    -0.73700
O398        O  0.42271379  0.66524198  0.26445461    -0.74600
O399        O  0.48226372  0.69430649  0.19160738    -0.63300
O400        O  0.42761896  0.58221025  0.23462074    -0.71700
O401        O  0.98781005  0.56837576  0.27317862    -0.71200
O402        O  0.04002571  0.67732098  0.23252624    -0.62500
O403        O  0.48109802  0.64987091  0.30505304    -0.75000
O404        O  0.04484236  0.59538776  0.20037496    -0.73800
Cu405      Cu  0.45257446  0.63903545  0.21134393     1.04600
Cu406      Cu  0.01540800  0.62227943  0.25394758     1.04300
C407        C  0.02673598  0.59858371  0.16338283     0.92500
C408        C  0.43981248  0.66108545  0.30182556     0.91700
C409        C  0.52175037  0.70105105  0.20283554     0.83800
C410        C  0.44809551  0.56042170  0.26461898     0.90100
O411        O  0.17787155  0.73258574  0.03992660    -0.73700
O412        O  0.06671437  0.77833012  0.98882806    -0.74600
O413        O  0.09230101  0.70483965  0.04612153    -0.63300
O414        O  0.15125400  0.80609371  0.48131222    -0.71700
O415        O  0.16355194  0.76429167  0.42476877    -0.71200
O416        O  0.10661450  0.66369578  0.98939222    -0.62500
O417        O  0.07798762  0.73778443  0.43116486    -0.75000
O418        O  0.19238238  0.69096644  0.48363108    -0.73800
Cu419      Cu  0.12165306  0.75668842  0.01598704     1.04600
Cu420      Cu  0.13569943  0.71263741  0.45530471     1.04300
C421        C  0.20082013  0.70199741  0.52191515     0.92500
C422        C  0.05742392  0.76928484  0.45038888     0.91700
C423        C  0.09388310  0.66748026  0.02913907     0.83800
C424        C  0.16114178  0.80202795  0.44086235     0.90100
O425        O  0.26090330  0.92350183  0.16059466    -0.73700
O426        O  0.15884945  0.49148693  0.10534040    -0.74600
O427        O  0.23488086  0.93366278  0.07667169    -0.63300
O428        O  0.18615644  0.98233863  0.18977291    -0.71700
O429        O  0.22950354  0.53811796  0.17824097    -0.71200
O430        O  0.27564909  0.49176123  0.06820498    -0.62500
O431        O  0.20091780  0.54839275  0.09460712    -0.75000
O432        O  0.30398964  0.97975195  0.15072837    -0.73800
Cu433      Cu  0.20855466  0.95579592  0.13353617     1.04600
Cu434      Cu  0.25372972  0.51643517  0.12268723     1.04300
C435        C  0.29953964  0.93906566  0.15909444     0.92500
C436        C  0.16283289  0.53166428  0.09453185     0.91700
C437        C  0.26700366  0.95359317  0.05780798     0.83800
C438        C  0.19809343  0.01992520  0.19966774     0.90100
O439        O  0.98954433  0.94150960  0.29301977    -0.73700
O440        O  0.06544908  0.88269826  0.20299943    -0.74600
O441        O  0.47525926  0.91400393  0.20910485    -0.63300
O442        O  0.08013835  0.91026739  0.28919165    -0.71700
O443        O  0.05475457  0.85065606  0.32196701    -0.71200
O444        O  0.45755859  0.84869551  0.23534444    -0.62500
O445        O  0.54771834  0.82074557  0.23740318    -0.75000
O446        O  0.46214201  0.87968503  0.31930577    -0.73800
Cu447      Cu  0.02863723  0.91442572  0.24791113     1.04600
Cu448      Cu  0.50527596  0.84769647  0.27978260     1.04300
C449        C  0.46107230  0.92105448  0.31672816     0.92500
C450        C  0.56700142  0.84133100  0.20573168     0.91700
C451        C  0.45032893  0.88147000  0.20934708     0.83800
C452        C  0.08360875  0.87989784  0.31871789     0.90100
O453        O  0.21043571  0.97503180  0.41599063    -0.73700
O454        O  0.28737705  0.58062906  0.41021288    -0.74600
O455        O  0.19939001  0.56249182  0.38357138    -0.63300
O456        O  0.29616319  0.49255497  0.44154960    -0.71700
O457        O  0.32316898  0.96571235  0.37961421    -0.71200
O458        O  0.23472709  0.04517624  0.32161469    -0.62500
O459        O  0.32119023  0.55593612  0.35050788    -0.75000
O460        O  0.23706566  0.95745122  0.35065120    -0.73800
Cu461      Cu  0.24762408  0.52874986  0.41514306     1.04600
Cu462      Cu  0.28029783  0.00583929  0.34835209     1.04300
C463        C  0.21129225  0.95003902  0.38376493     0.92500
C464        C  0.31720691  0.58439572  0.37974073     0.91700
C465        C  0.20159845  0.56312633  0.34225267     0.83800
C466        C  0.32135906  0.46520058  0.42084386     0.90100
O467        O  0.34789222  0.73491731  0.45836259    -0.73700
O468        O  0.34863226  0.82008261  0.05496026    -0.74600
O469        O  0.37514572  0.82020260  0.46396886    -0.63300
O470        O  0.32165881  0.73457177  0.54679536    -0.71700
O471        O  0.38658247  0.70130213  0.06218556    -0.71200
O472        O  0.44023273  0.79603351  0.98925828    -0.62500
O473        O  0.41133955  0.78850097  0.07832743    -0.75000
O474        O  0.41633845  0.71096612  0.47378138    -0.73800
Cu475      Cu  0.34600808  0.77860393  0.50583167     1.04600
Cu476      Cu  0.41607710  0.74858222  0.02686588     1.04300
C477        C  0.38241508  0.71038637  0.45006128     0.92500
C478        C  0.37933077  0.81715353  0.08269898     0.91700
C479        C  0.41735743  0.81949514  0.46222121     0.83800
C480        C  0.34427867  0.70289736  0.56448390     0.90100
C481        C  0.30795452  0.89877398  0.45691154    -0.14100
C482        C  0.34102063  0.42865622  0.44639341     0.08100
C483        C  0.36447308  0.44235519  0.48116467    -0.14100
C484        C  0.34108676  0.44723861  0.02070422    -0.14100
C485        C  0.29733571  0.93290051  0.02560693     0.08100
C486        C  0.28313340  0.90369202  0.99601258    -0.14100
H487        H  0.29336143  0.88187378  0.43125613     0.12100
H488        H  0.39434859  0.46013100  0.47503166     0.12100
H489        H  0.35485491  0.46650975  0.04507932     0.12100
H490        H  0.25128749  0.88911931  0.00072454     0.12100
C491        C  0.18534580  0.58746369  0.24109302    -0.14100
C492        C  0.17589669  0.04366650  0.23557718     0.08100
C493        C  0.14793987  0.02309797  0.26664883    -0.14100
C494        C  0.13902731  0.04261817  0.30653289    -0.14100
C495        C  0.16388751  0.57819391  0.31633605     0.08100
C496        C  0.17647316  0.60581856  0.28134269    -0.14100
H497        H  0.20351945  0.60586951  0.21620562     0.12100
H498        H  0.13695231  0.99072018  0.26201594     0.12100
H499        H  0.12354060  0.02341170  0.33262325     0.12100
H500        H  0.19076166  0.63651721  0.28731617     0.12100
C501        C  0.01798620  0.84131470  0.44213843    -0.14100
C502        C  0.02421387  0.79812075  0.42865755     0.08100
C503        C  0.99410194  0.78278584  0.90004607    -0.14100
C504        C  0.45318623  0.80606789  0.89526959    -0.14100
C505        C  0.44169539  0.83879650  0.42485979     0.08100
C506        C  0.47664773  0.86315057  0.43737419    -0.14100
H507        H  0.04264807  0.85581493  0.46093176     0.12100
H508        H  0.99975378  0.75124949  0.88611154     0.12100
H509        H  0.42721501  0.79069450  0.87901128     0.12100
H510        H  0.46958886  0.89279619  0.45459146     0.12100
C511        C  0.24241532  0.68915307  0.09007769    -0.14100
C512        C  0.23683251  0.67951714  0.54636954     0.08100
C513        C  0.26804817  0.65056381  0.52645836    -0.14100
C514        C  0.30861213  0.64078921  0.54636934    -0.14100
C515        C  0.31916755  0.66598224  0.58122819     0.08100
C516        C  0.28341435  0.67915859  0.10876273    -0.14100
H517        H  0.21726982  0.70802884  0.10810196     0.12100
H518        H  0.26312387  0.63921083  0.49430655     0.12100
H519        H  0.33498739  0.62425962  0.52765289     0.12100
H520        H  0.28972377  0.69306485  0.13949512     0.12100
C521        C  0.39347445  0.95789761  0.30055325    -0.14100
C522        C  0.42307745  0.94708703  0.33405162     0.08100
C523        C  0.93600279  0.98163986  0.35791535    -0.14100
C524        C  0.94028783  0.52184957  0.33602668    -0.14100
C525        C  0.42647948  0.52757272  0.29287268     0.08100
C526        C  0.39809145  0.49765799  0.27719820    -0.14100
H527        H  0.37731774  0.93223595  0.28521544     0.12100
H528        H  0.95380132  0.97512681  0.38751863     0.12100
H529        H  0.95907270  0.54622001  0.35056524     0.12100
H530        H  0.38418611  0.50265675  0.24543938     0.12100
C531        C  0.59205369  0.74028571  0.19271079    -0.14100
C532        C  0.54756106  0.73582406  0.18160038     0.08100
C533        C  0.02833322  0.76671006  0.15229927    -0.14100
C534        C  0.04938709  0.80585758  0.14349864    -0.14100
C535        C  0.58448332  0.81536719  0.16978149     0.08100
C536        C  0.61179940  0.77993076  0.18390932    -0.14100
H537        H  0.60972139  0.71531228  0.21192960     0.12100
H538        H  0.99575298  0.76258114  0.13986310     0.12100
H539        H  0.03097023  0.83206799  0.12662337     0.12100
H540        H  0.64273506  0.78547594  0.19909712     0.12100
C541        C  0.40915068  0.65944887  0.84085973     0.02400
C542        C  0.41275176  0.68497421  0.87732623    -0.13700
C543        C  0.38225955  0.68086516  0.91315881    -0.00100
C544        C  0.35010114  0.64905312  0.91324075    -0.12300
C545        C  0.34796328  0.62127602  0.87829346     0.02400
C546        C  0.37671661  0.62795407  0.84191523    -0.11700
H547        H  0.43787567  0.70878984  0.87715479     0.08000
H548        H  0.32748620  0.64533066  0.94112638     0.05500
H549        H  0.37474672  0.60753949  0.81436146     0.05400
C550        C  0.41293558  0.88120075  0.67941437     0.02400
C551        C  0.37626607  0.91139391  0.68328016    -0.13700
C552        C  0.33903278  0.90805492  0.65768322    -0.00100
C553        C  0.34028691  0.87618334  0.62604465    -0.12300
C554        C  0.37765792  0.84762274  0.61952086     0.02400
C555        C  0.41327662  0.84949042  0.64760989    -0.11700
H556        H  0.37609778  0.93636222  0.70689294     0.08000
H557        H  0.31225976  0.87466526  0.60527536     0.05500
H558        H  0.44185448  0.82702701  0.64415548     0.05400
C559        C  0.18149689  0.91305730  0.88365434     0.02400
C560        C  0.18574259  0.87728979  0.91380688    -0.13700
C561        C  0.15970104  0.84087718  0.91029956    -0.00100
C562        C  0.12751475  0.84205759  0.87821382    -0.12300
C563        C  0.12077899  0.87841295  0.84970073     0.02400
C564        C  0.14911183  0.91317549  0.85184475    -0.11700
H565        H  0.21001698  0.87714140  0.93868268     0.08000
H566        H  0.10658701  0.81465418  0.87629026     0.05500
H567        H  0.14542470  0.94094343  0.82937945     0.05400
C568        C  0.12230437  0.56036877  0.58843718     0.02400
C569        C  0.08858804  0.55975098  0.62138677    -0.13700
C570        C  0.05483310  0.59283975  0.62318060    -0.00100
C571        C  0.05436916  0.62654931  0.59067459    -0.12300
C572        C  0.08750965  0.62763510  0.55724490     0.02400
C573        C  0.12122191  0.59413254  0.55635052    -0.11700
H574        H  0.09078856  0.53556315  0.64785747     0.08000
H575        H  0.03035255  0.65377524  0.59334708     0.05500
H576        H  0.14867987  0.59622269  0.53273106     0.05400
O577        O  0.98599594  0.61174475  0.66065768    -0.73700
O578        O  0.42269266  0.66525771  0.76444903    -0.74600
O579        O  0.48224581  0.69431735  0.69160294    -0.63300
O580        O  0.42760171  0.58222249  0.73462172    -0.71700
O581        O  0.98778764  0.56839586  0.77318848    -0.71200
O582        O  0.04000971  0.67733494  0.73252292    -0.62500
O583        O  0.48107631  0.64989667  0.80505087    -0.75000
O584        O  0.04482700  0.59539476  0.70038519    -0.73800
Cu585      Cu  0.45255748  0.63904662  0.71134267     1.04600
Cu586      Cu  0.01538936  0.62229630  0.75395145     1.04300
C587        C  0.02672369  0.59858703  0.66339157     0.92500
C588        C  0.43979043  0.66110801  0.80182077     0.91700
C589        C  0.52173224  0.70106340  0.70283065     0.83800
C590        C  0.44807548  0.56043733  0.76462389     0.90100
O591        O  0.17787584  0.73257825  0.53994685    -0.73700
O592        O  0.06671987  0.77831985  0.48884132    -0.74600
O593        O  0.09230431  0.70483044  0.54613572    -0.63300
O594        O  0.15124993  0.80610141  0.98129425    -0.71700
O595        O  0.16354341  0.76429958  0.92475007    -0.71200
O596        O  0.10662272  0.66368691  0.48940695    -0.62500
O597        O  0.07797684  0.73779560  0.93115046    -0.75000
O598        O  0.19237429  0.69097294  0.98361088    -0.73800
Cu599      Cu  0.12165737  0.75667972  0.51600377     1.04600
Cu600      Cu  0.13569014  0.71264603  0.95528738     1.04300
C601        C  0.20081353  0.70200364  0.02189469     0.92500
C602        C  0.05741524  0.76929621  0.95037621     0.91700
C603        C  0.09388640  0.66747146  0.52915236     0.83800
C604        C  0.16113688  0.80203563  0.94084431     0.90100
O605        O  0.26089057  0.92348270  0.66058988    -0.73700
O606        O  0.15883129  0.49146959  0.60534768    -0.74600
O607        O  0.23486422  0.93364805  0.57667032    -0.63300
O608        O  0.18613901  0.98231491  0.68977545    -0.71700
O609        O  0.22948335  0.53809952  0.67824459    -0.71200
O610        O  0.27563490  0.49174710  0.56820900    -0.62500
O611        O  0.20090049  0.54837448  0.59461167    -0.75000
O612        O  0.30397165  0.97973751  0.65073085    -0.73800
Cu613      Cu  0.20853794  0.95577686  0.63353637     1.04600
Cu614      Cu  0.25371265  0.51641912  0.62269117     1.04300
C615        C  0.29952555  0.93904983  0.65909112     0.92500
C616        C  0.16281497  0.53164709  0.59453949     0.91700
C617        C  0.26698955  0.95357784  0.55781038     0.83800
C618        C  0.19807139  0.01990354  0.69966896     0.90100
O619        O  0.98953476  0.94152153  0.79300809    -0.73700
O620        O  0.06544174  0.88270931  0.70298796    -0.74600
O621        O  0.47525125  0.91401230  0.70909422    -0.63300
O622        O  0.08013106  0.91028123  0.78918017    -0.71700
O623        O  0.05474887  0.85066944  0.82195603    -0.71200
O624        O  0.45755391  0.84870362  0.73533598    -0.62500
O625        O  0.54771303  0.82075662  0.73739427    -0.75000
O626        O  0.46213672  0.87969460  0.81929645    -0.73800
Cu627      Cu  0.02862945  0.91443755  0.74789957     1.04600
Cu628      Cu  0.50527106  0.84770727  0.77977336     1.04300
C629        C  0.46106416  0.92106403  0.81671793     0.92500
C630        C  0.56699318  0.84134158  0.70572083     0.91700
C631        C  0.45032307  0.88147670  0.70933726     0.83800
C632        C  0.08360268  0.87991141  0.81870608     0.90100
O633        O  0.21043050  0.97504047  0.91597935    -0.73700
O634        O  0.28735909  0.58064673  0.91020723    -0.74600
O635        O  0.19937376  0.56249726  0.88356460    -0.63300
O636        O  0.29615731  0.49257219  0.94154008    -0.71700
O637        O  0.32316088  0.96573447  0.87960108    -0.71200
O638        O  0.23471236  0.04519275  0.82160377    -0.62500
O639        O  0.32117535  0.55595775  0.85050207    -0.75000
O640        O  0.23705897  0.95746668  0.85063748    -0.73800
Cu641      Cu  0.24761313  0.52876167  0.91513538     1.04600
Cu642      Cu  0.28028655  0.00585891  0.84834057     1.04300
C643        C  0.21128795  0.95004980  0.88375200     0.92500
C644        C  0.31718920  0.58441639  0.87973575     0.91700
C645        C  0.20158126  0.56313288  0.84224576     0.83800
C646        C  0.32135459  0.46522020  0.92083270     0.90100
O647        O  0.34787631  0.73493850  0.95836363    -0.73700
O648        O  0.34863655  0.82006928  0.55495329    -0.74600
O649        O  0.37513628  0.82022146  0.96397448    -0.63300
O650        O  0.32164740  0.73458787  0.04679763    -0.71700
O651        O  0.38659397  0.70129105  0.56219185    -0.71200
O652        O  0.44024176  0.79601741  0.48925567    -0.62500
O653        O  0.41134500  0.78849397  0.57832474    -0.75000
O654        O  0.41632360  0.71098533  0.97377594    -0.73800
Cu655      Cu  0.34599776  0.77862171  0.00583592     1.04600
Cu656      Cu  0.41608741  0.74856894  0.52686753     1.04300
C657        C  0.38239810  0.71040740  0.95005846     0.92500
C658        C  0.37933389  0.81714477  0.58269323     0.91700
C659        C  0.41734809  0.81951269  0.96222528     0.83800
C660        C  0.34426719  0.70290960  0.06447963     0.90100
C661        C  0.30795256  0.89879545  0.95690047    -0.14100
C662        C  0.34101932  0.42867632  0.94638030     0.08100
C663        C  0.36447571  0.44237519  0.98114882    -0.14100
C664        C  0.34107855  0.44722190  0.52071677    -0.14100
C665        C  0.29732669  0.93288339  0.52561475     0.08100
C666        C  0.28312969  0.90367265  0.49602015    -0.14100
H667        H  0.29335528  0.88189664  0.93124644     0.12100
H668        H  0.39434985  0.46015277  0.97501258     0.12100
H669        H  0.35484380  0.46649393  0.54509299     0.12100
H670        H  0.25128357  0.88909918  0.50072939     0.12100
C671        C  0.18531069  0.58744882  0.74108404    -0.14100
C672        C  0.17586978  0.04364629  0.73557497     0.08100
C673        C  0.14792225  0.02307622  0.76665358    -0.14100
C674        C  0.13901004  0.04260196  0.80653502    -0.14100
C675        C  0.16386424  0.57818686  0.81633075     0.08100
C676        C  0.17643847  0.60580896  0.78133126    -0.14100
H677        H  0.20347612  0.60585525  0.71619125     0.12100
H678        H  0.13694231  0.99069388  0.76202747     0.12100
H679        H  0.12353156  0.02339646  0.83263083     0.12100
H680        H  0.19071949  0.63651301  0.78729727     0.12100
C681        C  0.01798026  0.84132775  0.94213044    -0.14100
C682        C  0.02420385  0.79813391  0.92864838     0.08100
C683        C  0.99411771  0.78277101  0.40005038    -0.14100
C684        C  0.45320250  0.80605337  0.39526821    -0.14100
C685        C  0.44168509  0.83881173  0.92486204     0.08100
C686        C  0.47664072  0.86316372  0.93737230    -0.14100
H687        H  0.04264621  0.85582658  0.96092017     0.12100
H688        H  0.99977332  0.75123439  0.38611634     0.12100
H689        H  0.42723481  0.79067899  0.37900564     0.12100
H690        H  0.46958584  0.89280895  0.95459121     0.12100
C691        C  0.24242928  0.68915384  0.59009521    -0.14100
C692        C  0.23682441  0.67952185  0.04634959     0.08100
C693        C  0.26804465  0.65057416  0.02643731    -0.14100
C694        C  0.30860767  0.64080180  0.04635083    -0.14100
C695        C  0.31915640  0.66599084  0.08121506     0.08100
C696        C  0.28342947  0.67915716  0.60877741    -0.14100
H697        H  0.21728760  0.70803475  0.60811921     0.12100
H698        H  0.26312417  0.63922471  0.99428377     0.12100
H699        H  0.33498677  0.62427762  0.02763413     0.12100
H700        H  0.28974382  0.69306656  0.63950713     0.12100
C701        C  0.39346499  0.95790385  0.80054077    -0.14100
C702        C  0.42306677  0.94709368  0.83404015     0.08100
C703        C  0.93598601  0.98164607  0.85790774    -0.14100
C704        C  0.94026554  0.52185860  0.83602671    -0.14100
C705        C  0.42645996  0.52758441  0.79287305     0.08100
C706        C  0.39807897  0.49766677  0.77719202    -0.14100
H707        H  0.37731415  0.93224139  0.78519827     0.12100
H708        H  0.95378460  0.97513155  0.88751069     0.12100
H709        H  0.95904494  0.54623012  0.85056993     0.12100
H710        H  0.38417662  0.50266622  0.74543237     0.12100
C711        C  0.59203707  0.74029492  0.69269852    -0.14100
C712        C  0.54754263  0.73583549  0.68159289     0.08100
C713        C  0.02831591  0.76672197  0.65229359    -0.14100
C714        C  0.04937103  0.80586852  0.64349058    -0.14100
C715        C  0.58446914  0.81537676  0.66976894     0.08100
C716        C  0.61178463  0.77993868  0.68389396    -0.14100
H717        H  0.60970545  0.71532077  0.71191535     0.12100
H718        H  0.99573447  0.76259382  0.63986003     0.12100
H719        H  0.03095374  0.83207973  0.62661632     0.12100
H720        H  0.64272292  0.78548195  0.69907773     0.12100
C721        C  0.90917800  0.15942595  0.34086499     0.02400
C722        C  0.91277513  0.18495298  0.37733084    -0.13700
C723        C  0.88228099  0.18084361  0.41316169    -0.00100
C724        C  0.85012414  0.14903045  0.41324298    -0.12300
C725        C  0.84798983  0.12125170  0.37829669     0.02400
C726        C  0.87674520  0.12792931  0.34191961    -0.11700
H727        H  0.93789726  0.20877105  0.37715986     0.08000
H728        H  0.82750740  0.14530902  0.44112692     0.05500
H729        H  0.87477673  0.10751451  0.31436605     0.05400
C730        C  0.91293342  0.38119530  0.17942473     0.02400
C731        C  0.87626790  0.41139355  0.18328969    -0.13700
C732        C  0.83903483  0.40806051  0.15769106    -0.00100
C733        C  0.84028461  0.37618921  0.12605293    -0.12300
C734        C  0.87765142  0.34762354  0.11953049     0.02400
C735        C  0.91327015  0.34948503  0.14762052    -0.11700
H736        H  0.87610270  0.43636129  0.20690235     0.08000
H737        H  0.81225832  0.37467600  0.10528254     0.05500
H738        H  0.94184495  0.32701801  0.14416629     0.05400
C739        C  0.68149331  0.41305039  0.38366490     0.02400
C740        C  0.68573775  0.37728504  0.41381952    -0.13700
C741        C  0.65969842  0.34087137  0.41031251    -0.00100
C742        C  0.62751427  0.34204855  0.37822462    -0.12300
C743        C  0.62077946  0.37840228  0.34970891     0.02400
C744        C  0.64911116  0.41316583  0.35185279    -0.11700
H745        H  0.71001077  0.37713858  0.43869635     0.08000
H746        H  0.60658803  0.31464428  0.37630111     0.05500
H747        H  0.64542533  0.44093284  0.32938512     0.05400
C748        C  0.62232641  0.06038743  0.08842713     0.02400
C749        C  0.58860993  0.05976308  0.12137572    -0.13700
C750        C  0.55484944  0.09284560  0.12317054    -0.00100
C751        C  0.55437746  0.12655479  0.09066391    -0.12300
C752        C  0.58751683  0.12764616  0.05723306     0.02400
C753        C  0.62123748  0.09415101  0.05634013    -0.11700
H754        H  0.59081470  0.03557489  0.14784640     0.08000
H755        H  0.53035559  0.15377583  0.09333653     0.05500
H756        H  0.64869489  0.09624623  0.03272056     0.05400
O757        O  0.48601378  0.11174072  0.16065477    -0.73700
O758        O  0.92271935  0.16524543  0.26445474    -0.74600
O759        O  0.98226828  0.19430924  0.19160652    -0.63300
O760        O  0.92762777  0.08221289  0.23462420    -0.71700
O761        O  0.48781924  0.06838221  0.27318025    -0.71200
O762        O  0.54003079  0.17732832  0.23252442    -0.62500
O763        O  0.98110360  0.14987691  0.30505382    -0.75000
O764        O  0.54485022  0.09539390  0.20037585    -0.73800
Cu765      Cu  0.95258092  0.13903799  0.21134534     1.04600
Cu766      Cu  0.51541499  0.12228638  0.25394763     1.04300
C767        C  0.52674309  0.09858744  0.16338403     0.92500
C768        C  0.93981760  0.16108945  0.30182585     0.91700
C769        C  0.02175465  0.20105561  0.20283422     0.83800
C770        C  0.94810530  0.06042569  0.26462261     0.90100
O771        O  0.67787143  0.23258774  0.03992182    -0.73700
O772        O  0.56671267  0.27833287  0.98882754    -0.74600
O773        O  0.59230137  0.20484210  0.04611987    -0.63300
O774        O  0.65125085  0.30609740  0.48130859    -0.71700
O775        O  0.66354636  0.26429471  0.42476524    -0.71200
O776        O  0.60661190  0.16369816  0.98939006    -0.62500
O777        O  0.57798171  0.23778987  0.43116513    -0.75000
O778        O  0.69237823  0.19096933  0.48362631    -0.73800
Cu779      Cu  0.62165233  0.25669072  0.01598431     1.04600
Cu780      Cu  0.63569433  0.21264139  0.45530223     1.04300
C781        C  0.70081768  0.20200027  0.52190997     0.92500
C782        C  0.55741933  0.26929036  0.45039021     0.91700
C783        C  0.59388297  0.16748265  0.02913752     0.83800
C784        C  0.66113695  0.30203107  0.44085849     0.90100
O785        O  0.76089513  0.42349606  0.16059513    -0.73700
O786        O  0.65885640  0.99149169  0.10533937    -0.74600
O787        O  0.73487431  0.43365792  0.07667165    -0.63300
O788        O  0.68614815  0.48233287  0.18977292    -0.71700
O789        O  0.72951173  0.03812455  0.17823827    -0.71200
O790        O  0.77565509  0.99176645  0.06820201    -0.62500
O791        O  0.70092389  0.04839800  0.09460486    -0.75000
O792        O  0.80398180  0.47974614  0.15073058    -0.73800
Cu793      Cu  0.70854717  0.45579065  0.13353612     1.04600
Cu794      Cu  0.75373675  0.01644103  0.12268434     1.04300
C795        C  0.79953148  0.43905983  0.15909597     0.92500
C796        C  0.66283916  0.03166904  0.09453036     0.91700
C797        C  0.76699767  0.45358829  0.05780884     0.83800
C798        C  0.69808508  0.51991938  0.19966810     0.90100
O799        O  0.48953777  0.44150830  0.29301671    -0.73700
O800        O  0.56544424  0.38270251  0.20299415    -0.74600
O801        O  0.97525163  0.41400325  0.20910353    -0.63300
O802        O  0.58013306  0.41026939  0.28918711    -0.71700
O803        O  0.55475170  0.35065627  0.32196102    -0.71200
O804        O  0.95755468  0.34869332  0.23534203    -0.62500
O805        O  0.04771561  0.32074781  0.23739774    -0.75000
O806        O  0.96213757  0.37968167  0.31930330    -0.73800
Cu807      Cu  0.52863132  0.41442694  0.24790714     1.04600
Cu808      Cu  0.00527256  0.34769559  0.27977881     1.04300
C809        C  0.96106581  0.42105122  0.31672630     0.92500
C810        C  0.06699771  0.34133501  0.20572675     0.91700
C811        C  0.95032280  0.38146816  0.20934580     0.83800
C812        C  0.58360473  0.37989905  0.31871250     0.90100
O813        O  0.71042855  0.47503332  0.41598838    -0.73700
O814        O  0.78738524  0.08062601  0.41021261    -0.74600
O815        O  0.69939842  0.06249045  0.38357224    -0.63300
O816        O  0.79617073  0.99255239  0.44155014    -0.71700
O817        O  0.82316133  0.46571446  0.37961440    -0.71200
O818        O  0.73472073  0.54517904  0.32161372    -0.62500
O819        O  0.82119805  0.05593311  0.35050741    -0.75000
O820        O  0.73705925  0.45745428  0.35064869    -0.73800
Cu821      Cu  0.74763184  0.02874753  0.41514378     1.04600
Cu822      Cu  0.78029099  0.50584191  0.34835175     1.04300
C823        C  0.71128560  0.45004143  0.38376199     0.92500
C824        C  0.81721458  0.08439296  0.37974008     0.91700
C825        C  0.70160707  0.06312507  0.34225356     0.83800
C826        C  0.82136683  0.96519796  0.42084467     0.90100
O827        O  0.84789097  0.23491798  0.45836039    -0.73700
O828        O  0.84862593  0.32007798  0.05496181    -0.74600
O829        O  0.87514111  0.32020403  0.46397055    -0.63300
O830        O  0.82165492  0.23456935  0.54679244    -0.71700
O831        O  0.88657899  0.20129871  0.06218471    -0.71200
O832        O  0.94022907  0.29603341  0.98926106    -0.62500
O833        O  0.91133370  0.28849744  0.07832922    -0.75000
O834        O  0.91633671  0.21096685  0.47378136    -0.73800
Cu835      Cu  0.84600409  0.27860312  0.50583101     1.04600
Cu836      Cu  0.91607374  0.24858037  0.02686697     1.04300
C837        C  0.88241436  0.21038743  0.45006000     0.92500
C838        C  0.87932402  0.31714895  0.08270091     0.91700
C839        C  0.91735276  0.31949713  0.46222329     0.83800
C840        C  0.84427464  0.20289503  0.56448120     0.90100
C841        C  0.80794568  0.39877511  0.45691119    -0.14100
C842        C  0.84102893  0.92865415  0.44639465     0.08100
C843        C  0.86448053  0.94235437  0.48116596    -0.14100
C844        C  0.84109299  0.94724297  0.02070195    -0.14100
C845        C  0.79732999  0.43289617  0.02560764     0.08100
C846        C  0.78312769  0.40368957  0.99601153    -0.14100
H847        H  0.79335171  0.38187621  0.43125555     0.12100
H848        H  0.89435655  0.96012941  0.47503299     0.12100
H849        H  0.85486104  0.96651514  0.04507623     0.12100
H850        H  0.75128131  0.38911672  0.00072269     0.12100
C851        C  0.68535905  0.08746894  0.24109449    -0.14100
C852        C  0.67588765  0.54366095  0.23557695     0.08100
C853        C  0.64793289  0.52309217  0.26665012    -0.14100
C854        C  0.63902057  0.54261341  0.30653365    -0.14100
C855        C  0.66389787  0.07819689  0.31633662     0.08100
C856        C  0.67648682  0.10582226  0.28134498    -0.14100
H857        H  0.70353490  0.10587453  0.21620857     0.12100
H858        H  0.63694678  0.49071325  0.26201855     0.12100
H859        H  0.62353564  0.52340698  0.33262531     0.12100
H860        H  0.69077774  0.13651920  0.28732053     0.12100
C861        C  0.51798055  0.34132030  0.44214363    -0.14100
C862        C  0.52420898  0.29812721  0.42866040     0.08100
C863        C  0.49409815  0.28278977  0.90004677    -0.14100
C864        C  0.95318253  0.30607317  0.89527216    -0.14100
C865        C  0.94169048  0.33880084  0.42486302     0.08100
C866        C  0.97664219  0.36315475  0.43737908    -0.14100
H867        H  0.54264207  0.35581984  0.46093844     0.12100
H868        H  0.49975087  0.25125431  0.88611067     0.12100
H869        H  0.92721143  0.29070048  0.87901309     0.12100
H870        H  0.96958259  0.39279958  0.45459770     0.12100
C871        C  0.74241229  0.18915068  0.09007304    -0.14100
C872        C  0.73682937  0.17951841  0.54636401     0.08100
C873        C  0.76804453  0.15056488  0.52645245    -0.14100
C874        C  0.80860776  0.14078802  0.54636419    -0.14100
C875        C  0.81916330  0.16597952  0.58122421     0.08100
C876        C  0.78341043  0.17915386  0.10875895    -0.14100
H877        H  0.71726660  0.20802680  0.10809776     0.12100
H878        H  0.76312054  0.13921328  0.49429993     0.12100
H879        H  0.83498270  0.12425817  0.52764802     0.12100
H880        H  0.78971959  0.19305839  0.13949214     0.12100
C881        C  0.89346665  0.45789149  0.30055027    -0.14100
C882        C  0.92306930  0.44708201  0.33404925     0.08100
C883        C  0.43599236  0.48163591  0.35791122    -0.14100
C884        C  0.44029963  0.02185355  0.33602846    -0.14100
C885        C  0.92649040  0.02757659  0.29287679     0.08100
C886        C  0.89810014  0.99766332  0.27720318    -0.14100
H887        H  0.87731121  0.43222906  0.28521224     0.12100
H888        H  0.45379041  0.47512362  0.38751485     0.12100
H889        H  0.45908606  0.04622345  0.35056668     0.12100
H890        H  0.88419413  0.00266249  0.24544525     0.12100
C891        C  0.09205660  0.24029222  0.19270704    -0.14100
C892        C  0.04756418  0.23582835  0.18159707     0.08100
C893        C  0.52833582  0.26671325  0.15229311    -0.14100
C894        C  0.54938811  0.30586147  0.14349149    -0.14100
C895        C  0.08448221  0.31537295  0.16977619     0.08100
C896        C  0.11180033  0.27993809  0.18390417    -0.14100
H897        H  0.10972531  0.21532025  0.21192659     0.12100
H898        H  0.49575578  0.26258280  0.13985722     0.12100
H899        H  0.53097030  0.33207076  0.12661555     0.12100
H900        H  0.14273584  0.28548522  0.19909156     0.12100
C901        C  0.90915643  0.15945173  0.84085838     0.02400
C902        C  0.91275525  0.18497672  0.87732534    -0.13700
C903        C  0.88226241  0.18086611  0.91315700    -0.00100
C904        C  0.85010544  0.14905300  0.91323763    -0.12300
C905        C  0.84796942  0.12127622  0.87828996     0.02400
C906        C  0.87672348  0.12795557  0.84191243    -0.11700
H907        H  0.93787838  0.20879384  0.87715493     0.08000
H908        H  0.82748979  0.14532955  0.94112295     0.05500
H909        H  0.87475477  0.10754152  0.81435835     0.05400
C910        C  0.91293182  0.38119912  0.67941284     0.02400
C911        C  0.87626179  0.41139130  0.68327998    -0.13700
C912        C  0.83902714  0.40805084  0.65768537    -0.00100
C913        C  0.84028036  0.37617891  0.62604721    -0.12300
C914        C  0.87765200  0.34761951  0.61952194     0.02400
C915        C  0.91327210  0.34948826  0.64760909    -0.11700
H916        H  0.87609419  0.43636026  0.70689220     0.08000
H917        H  0.81225254  0.37466001  0.60527926     0.05500
H918        H  0.94185020  0.32702575  0.64415362     0.05400
C919        C  0.68149318  0.41305877  0.88365195     0.02400
C920        C  0.68573866  0.37729130  0.91380433    -0.13700
C921        C  0.65969845  0.34087813  0.91029554    -0.00100
C922        C  0.62751333  0.34205786  0.87820878    -0.12300
C923        C  0.62077762  0.37841332  0.84969582     0.02400
C924        C  0.64910954  0.41317641  0.85184101    -0.11700
H925        H  0.71001175  0.37714337  0.93868096     0.08000
H926        H  0.60658619  0.31465421  0.87628469     0.05500
H927        H  0.64542258  0.44094432  0.82937584     0.05400
C928        C  0.62230849  0.06037344  0.58843559     0.02400
C929        C  0.58859342  0.05975550  0.62138634    -0.13700
C930        C  0.55483802  0.09284361  0.62318105    -0.00100
C931        C  0.55437205  0.12655281  0.59067488    -0.12300
C932        C  0.58751119  0.12763906  0.55724422     0.02400
C933        C  0.62122427  0.09413721  0.55634885    -0.11700
H934        H  0.59079523  0.03556758  0.64785747     0.08000
H935        H  0.53035488  0.15377821  0.59334792     0.05500
H936        H  0.64868138  0.09622783  0.53272832     0.05400
O937        O  0.48600139  0.11174729  0.66065843    -0.73700
O938        O  0.92269982  0.16526333  0.76444823    -0.74600
O939        O  0.98225279  0.19432136  0.69160139    -0.63300
O940        O  0.92761000  0.08222758  0.73462364    -0.71700
O941        O  0.48779570  0.06840216  0.77318970    -0.71200
O942        O  0.54001363  0.17734219  0.73252049    -0.62500
O943        O  0.98108320  0.14990325  0.80505071    -0.75000
O944        O  0.54483356  0.09540085  0.70038553    -0.73800
Cu945      Cu  0.95256494  0.13905105  0.71134302     1.04600
Cu946      Cu  0.51539523  0.12230315  0.75395101     1.04300
C947        C  0.52672947  0.09859097  0.66339224     0.92500
C948        C  0.93979701  0.16111328  0.80182014     0.91700
C949        C  0.02173920  0.20106831  0.70282858     0.83800
C950        C  0.94808420  0.06044309  0.76462590     0.90100
O951        O  0.67787516  0.23258204  0.53994201    -0.73700
O952        O  0.56671686  0.27832453  0.48884245    -0.74600
O953        O  0.59230423  0.20483442  0.54613501    -0.63300
O954        O  0.65124831  0.30610319  0.98129044    -0.71700
O955        O  0.66353962  0.26430089  0.92474627    -0.71200
O956        O  0.60661868  0.16369123  0.48940528    -0.62500
O957        O  0.57797265  0.23779863  0.93114948    -0.75000
O958        O  0.69237144  0.19097425  0.98360613    -0.73800
Cu959      Cu  0.62165572  0.25668381  0.51600177     1.04600
Cu960      Cu  0.63568664  0.21264810  0.95528440     1.04300
C961        C  0.70081192  0.20200482  0.02188965     0.92500
C962        C  0.55741206  0.26929934  0.95037601     0.91700
C963        C  0.59388540  0.16747554  0.52915146     0.83800
C964        C  0.66113405  0.30203696  0.94084036     0.90100
O965        O  0.76088500  0.42347833  0.66059268    -0.73700
O966        O  0.65883602  0.99147426  0.60534495    -0.74600
O967        O  0.73485875  0.43364491  0.57667308    -0.63300
O968        O  0.68613359  0.48231020  0.68977913    -0.71700
O969        O  0.72948860  0.03810487  0.67824088    -0.71200
O970        O  0.77563927  0.99175122  0.56820553    -0.62500
O971        O  0.70090498  0.04837922  0.59460819    -0.75000
O972        O  0.80396606  0.47973332  0.65073492    -0.73800
Cu973      Cu  0.70853254  0.45577288  0.63353961     1.04600
Cu974      Cu  0.75371744  0.01642389  0.62268753     1.04300
C975        C  0.79951993  0.43904550  0.65909421     0.92500
C976        C  0.66281944  0.03165180  0.59453664     0.91700
C977        C  0.76698402  0.45357492  0.55781333     0.83800
C978        C  0.69806578  0.51989879  0.69967299     0.90100
O979        O  0.48953090  0.44151867  0.79300649    -0.73700
O980        O  0.56543882  0.38271260  0.70298297    -0.74600
O981        O  0.97524705  0.41401230  0.70909174    -0.63300
O982        O  0.58012852  0.41028212  0.78917608    -0.71700
O983        O  0.55474906  0.35066828  0.82195021    -0.71200
O984        O  0.95755290  0.34870200  0.73533166    -0.62500
O985        O  0.04771298  0.32075886  0.73738782    -0.75000
O986        O  0.96213443  0.37969086  0.81929254    -0.73800
Cu987      Cu  0.52862594  0.41443764  0.74789646     1.04600
Cu988      Cu  0.00527002  0.34770623  0.77976824     1.04300
C989        C  0.96105994  0.42106039  0.81671509     0.92500
C990        C  0.06699269  0.34134564  0.70571528     0.91700
C991        C  0.95032021  0.38147569  0.70933432     0.83800
C992        C  0.58360157  0.37991144  0.81870100     0.90100
O993        O  0.71042603  0.47504083  0.91597953    -0.73700
O994        O  0.78736585  0.08064664  0.91020338    -0.74600
O995        O  0.69938042  0.06249824  0.88356236    -0.63300
O996        O  0.79616363  0.99257302  0.94153764    -0.71700
O997        O  0.82315571  0.46573651  0.87960222    -0.71200
O998        O  0.73470729  0.54519562  0.82160587    -0.62500
O999        O  0.82118179  0.05595734  0.85049820    -0.75000
O1000       O  0.73705454  0.45746951  0.85063692    -0.73800
Cu1001     Cu  0.74761954  0.02876231  0.91513300     1.04600
Cu1002     Cu  0.78028153  0.50586156  0.84834217     1.04300
C1003       C  0.71128357  0.45005148  0.88375111     0.92500
C1004       C  0.81719578  0.08441619  0.87973174     0.91700
C1005       C  0.70158773  0.06313373  0.84224355     0.83800
C1006       C  0.82136074  0.96522065  0.92083063     0.90100
O1007       O  0.84787631  0.23493789  0.95836163    -0.73700
O1008       O  0.84863054  0.32006676  0.55495423    -0.74600
O1009       O  0.87513263  0.32022147  0.96397721    -0.63300
O1010       O  0.82164399  0.23458337  0.04679468    -0.71700
O1011       O  0.88659000  0.20128945  0.56219064    -0.71200
O1012       O  0.94023724  0.29601836  0.48925690    -0.62500
O1013       O  0.91133961  0.28849221  0.57832520    -0.75000
O1014       O  0.91632311  0.21098498  0.97377629    -0.73800
Cu1015     Cu  0.84599440  0.27861916  0.00583570     1.04600
Cu1016     Cu  0.91608349  0.24856855  0.52686769     1.04300
C1017       C  0.88239881  0.21040748  0.95005726     0.92500
C1018       C  0.87932793  0.31714221  0.58269410     0.91700
C1019       C  0.91734438  0.31951357  0.96222879     0.83800
C1020       C  0.84426366  0.20290529  0.06447710     0.90100
C1021       C  0.80794657  0.39879519  0.95689899    -0.14100
C1022       C  0.84102588  0.92867751  0.94637893     0.08100
C1023       C  0.86448223  0.94237772  0.98114692    -0.14100
C1024       C  0.84108450  0.94722376  0.52071693    -0.14100
C1025       C  0.79732020  0.43288151  0.52561619     0.08100
C1026       C  0.78312199  0.40367222  0.49602071    -0.14100
H1027       H  0.79334919  0.38189817  0.93124400     0.12100
H1028       H  0.89435638  0.96015493  0.97501005     0.12100
H1029       H  0.85484897  0.96649707  0.54509256     0.12100
H1030       H  0.75127610  0.38909901  0.50073003     0.12100
C1031       C  0.68531886  0.08745375  0.74108224    -0.14100
C1032       C  0.67586355  0.54364157  0.73557868     0.08100
C1033       C  0.64791747  0.52307104  0.76665827    -0.14100
C1034       C  0.63900478  0.54259783  0.80653919    -0.14100
C1035       C  0.66387156  0.07819037  0.81632868     0.08100
C1036       C  0.67644743  0.10581283  0.78133008    -0.14100
H1037       H  0.70348529  0.10585981  0.71619035     0.12100
H1038       H  0.63693907  0.49068819  0.76203316     0.12100
H1039       H  0.62352756  0.52339244  0.83263583     0.12100
H1040       H  0.69073029  0.13651603  0.78729720     0.12100
C1041       C  0.51797513  0.34133035  0.94213366    -0.14100
C1042       C  0.52419981  0.29813729  0.92864964     0.08100
C1043       C  0.49411369  0.28277886  0.40005144    -0.14100
C1044       C  0.95319845  0.30605941  0.39526983    -0.14100
C1045       C  0.94168125  0.33881498  0.92486678     0.08100
C1046       C  0.97663661  0.36316645  0.93737852    -0.14100
H1047       H  0.54264091  0.35582905  0.96092394     0.12100
H1048       H  0.49976991  0.25124379  0.38611565     0.12100
H1049       H  0.92723137  0.29068562  0.37900599     0.12100
H1050       H  0.96958144  0.39281044  0.95459952     0.12100
C1051       C  0.74242551  0.18915308  0.59009034    -0.14100
C1052       C  0.73682195  0.17952144  0.04634437     0.08100
C1053       C  0.76804158  0.15057333  0.02643182    -0.14100
C1054       C  0.80860376  0.14079856  0.04634622    -0.14100
C1055       C  0.81915270  0.16598619  0.08121148     0.08100
C1056       C  0.78342495  0.17915418  0.60877327    -0.14100
H1057       H  0.71728387  0.20803394  0.60811468     0.12100
H1058       H  0.76312146  0.13922522  0.99427760     0.12100
H1059       H  0.83498254  0.12427391  0.02762985     0.12100
H1060       H  0.78973899  0.19306185  0.63950385     0.12100
C1061       C  0.89345917  0.45789731  0.80053738    -0.14100
C1062       C  0.92306088  0.44708811  0.83403706     0.08100
C1063       C  0.43597866  0.48164009  0.85790549    -0.14100
C1064       C  0.44027587  0.02186298  0.83602833    -0.14100
C1065       C  0.92646890  0.02759045  0.79287530     0.08100
C1066       C  0.89808577  0.99767442  0.77719478    -0.14100
H1067       H  0.87730986  0.43223411  0.78519442     0.12100
H1068       H  0.45377699  0.47512652  0.88750838     0.12100
H1069       H  0.45905688  0.04623386  0.85057100     0.12100
H1070       H  0.88418319  0.00267432  0.74543549     0.12100
C1071       C  0.09204307  0.24030144  0.69269462    -0.14100
C1072       C  0.04754890  0.23583997  0.68158906     0.08100
C1073       C  0.52831734  0.26672555  0.65228733    -0.14100
C1074       C  0.54937153  0.30587252  0.64348332    -0.14100
C1075       C  0.08447168  0.31538257  0.66976317     0.08100
C1076       C  0.11178888  0.27994593  0.68388864    -0.14100
H1077       H  0.10971212  0.21532874  0.71191237     0.12100
H1078       H  0.49573591  0.26259654  0.63985465     0.12100
H1079       H  0.53095344  0.33208305  0.62660895     0.12100
H1080       H  0.14272705  0.28549107  0.69907221     0.12100
C1081       C  0.90917335  0.65942359  0.34086597     0.02400
C1082       C  0.91277322  0.68494947  0.37733226    -0.13700
C1083       C  0.88227958  0.68084162  0.41316375    -0.00100
C1084       C  0.85012048  0.64903057  0.41324493    -0.12300
C1085       C  0.84798348  0.62125273  0.37829831     0.02400
C1086       C  0.87673841  0.62792923  0.34192072    -0.11700
H1087       H  0.93789746  0.70876603  0.37716112     0.08000
H1088       H  0.82750354  0.64530989  0.44112975     0.05500
H1089       H  0.87476824  0.60751513  0.31436713     0.05400
C1090       C  0.91293983  0.88119831  0.17942558     0.02400
C1091       C  0.87627491  0.91139744  0.18328992    -0.13700
C1092       C  0.83904291  0.90806640  0.15768934    -0.00100
C1093       C  0.84029315  0.87619591  0.12605037    -0.12300
C1094       C  0.87765916  0.84762903  0.11952868     0.02400
C1095       C  0.91327692  0.84948904  0.14762020    -0.11700
H1096       H  0.87610926  0.93636435  0.20690382     0.08000
H1097       H  0.81226714  0.87468381  0.10527892     0.05500
H1098       H  0.94185138  0.82702105  0.14416652     0.05400
C1099       C  0.68149925  0.91304802  0.38366854     0.02400
C1100       C  0.68574407  0.87728210  0.41382280    -0.13700
C1101       C  0.65970365  0.84086884  0.41031629    -0.00100
C1102       C  0.62751876  0.84204690  0.37822909    -0.12300
C1103       C  0.62078378  0.87840088  0.34971378     0.02400
C1104       C  0.64911592  0.91316427  0.35185738    -0.11700
H1105       H  0.71001772  0.87713488  0.43869851     0.08000
H1106       H  0.60659215  0.81464280  0.37630555     0.05500
H1107       H  0.64542979  0.94093138  0.32939021     0.05400
C1108       C  0.62232074  0.56038328  0.08842687     0.02400
C1109       C  0.58860289  0.55975889  0.12137413    -0.13700
C1110       C  0.55484321  0.59284230  0.12316881    -0.00100
C1111       C  0.55437376  0.62655255  0.09066311    -0.12300
C1112       C  0.58751459  0.62764388  0.05723345     0.02400
C1113       C  0.62123409  0.59414769  0.05634076    -0.11700
H1114       H  0.59080605  0.53556986  0.14784429     0.08000
H1115       H  0.53035259  0.65377436  0.09333571     0.05500
H1116       H  0.64869232  0.59624267  0.03272245     0.05400
O1117       O  0.48600707  0.61173862  0.16065281    -0.73700
O1118       O  0.92271363  0.66524157  0.26445535    -0.74600
O1119       O  0.98226340  0.69430628  0.19160819    -0.63300
O1120       O  0.92761906  0.58220987  0.23462150    -0.71700
O1121       O  0.48780991  0.56837600  0.27317787    -0.71200
O1122       O  0.54002600  0.67732099  0.23252540    -0.62500
O1123       O  0.98109789  0.64987066  0.30505378    -0.75000
O1124       O  0.54484234  0.59538768  0.20037424    -0.73800
Cu1125     Cu  0.95257435  0.63903515  0.21134469     1.04600
Cu1126     Cu  0.51540807  0.62227954  0.25394681     1.04300
C1127       C  0.52673598  0.59858368  0.16338209     0.92500
C1128       C  0.93981232  0.66108508  0.30182628     0.91700
C1129       C  0.02175002  0.70105097  0.20283637     0.83800
C1130       C  0.94809565  0.56042140  0.26461974     0.90100
O1131       O  0.67787124  0.73258686  0.03992706    -0.73700
O1132       O  0.56671398  0.77833037  0.98882773    -0.74600
O1133       O  0.59230089  0.70483998  0.04612133    -0.63300
O1134       O  0.65125419  0.80609389  0.48131188    -0.71700
O1135       O  0.66355182  0.76429171  0.42476849    -0.71200
O1136       O  0.60661506  0.66369633  0.98939197    -0.62500
O1137       O  0.57798734  0.73778503  0.43116494    -0.75000
O1138       O  0.69238211  0.69096642  0.48363088    -0.73800
Cu1139     Cu  0.62165269  0.75668911  0.01598711     1.04600
Cu1140     Cu  0.63569914  0.71263767  0.45530460     1.04300
C1141       C  0.70081998  0.70199742  0.52191492     0.92500
C1142       C  0.55742383  0.76928552  0.45038899     0.91700
C1143       C  0.59388335  0.66748063  0.02913875     0.83800
C1144       C  0.66114180  0.80202802  0.44086201     0.90100
O1145       O  0.76090320  0.92350210  0.16059444    -0.73700
O1146       O  0.65884949  0.49148688  0.10533949    -0.74600
O1147       O  0.73488102  0.93366291  0.07667129    -0.63300
O1148       O  0.68615641  0.98233908  0.18977244    -0.71700
O1149       O  0.72950371  0.53811834  0.17823987    -0.71200
O1150       O  0.77564912  0.49176109  0.06820411    -0.62500
O1151       O  0.70091781  0.54839272  0.09460607    -0.75000
O1152       O  0.80398966  0.97975212  0.15072804    -0.73800
Cu1153     Cu  0.70855467  0.95579619  0.13353575     1.04600
Cu1154     Cu  0.75372979  0.51643529  0.12268625     1.04300
C1155       C  0.79953955  0.93906589  0.15909433     0.92500
C1156       C  0.66283290  0.53166424  0.09453089     0.91700
C1157       C  0.76700384  0.95359333  0.05780759     0.83800
C1158       C  0.69809355  0.01992560  0.19966725     0.90100
O1159       O  0.48954467  0.94150985  0.29301886    -0.73700
O1160       O  0.56544965  0.88269831  0.20299882    -0.74600
O1161       O  0.97525871  0.91400378  0.20910577    -0.63300
O1162       O  0.58013867  0.91026745  0.28919106    -0.71700
O1163       O  0.55475467  0.85065623  0.32196646    -0.71200
O1164       O  0.95755799  0.84869541  0.23534545    -0.62500
O1165       O  0.04771774  0.82074548  0.23740371    -0.75000
O1166       O  0.96214187  0.87968475  0.31930682    -0.73800
Cu1167     Cu  0.52863769  0.91442585  0.24791037     1.04600
Cu1168     Cu  0.00527562  0.84769631  0.27978338     1.04300
C1169       C  0.96107210  0.92105419  0.31672922     0.92500
C1170       C  0.06700079  0.84133095  0.20573221     0.91700
C1171       C  0.95032834  0.88146989  0.20934806     0.83800
C1172       C  0.58360893  0.87989793  0.31871736     0.90100
O1173       O  0.71043557  0.97503166  0.41599049    -0.73700
O1174       O  0.78737696  0.58062852  0.41021328    -0.74600
O1175       O  0.69939019  0.56249158  0.38357104    -0.63300
O1176       O  0.79616269  0.49255443  0.44154998    -0.71700
O1177       O  0.82316899  0.96571190  0.37961471    -0.71200
O1178       O  0.73472767  0.04517611  0.32161481    -0.62500
O1179       O  0.82119044  0.55593556  0.35050843    -0.75000
O1180       O  0.73706587  0.95745107  0.35065116    -0.73800
Cu1181     Cu  0.74762388  0.52874946  0.41514310     1.04600
Cu1182     Cu  0.78029812  0.00583898  0.34835242     1.04300
C1183       C  0.71129227  0.95003892  0.38376476     0.92500
C1184       C  0.81720696  0.58439514  0.37974127     0.91700
C1185       C  0.70159894  0.56312606  0.34225234     0.83800
C1186       C  0.82135876  0.46520006  0.42084440     0.90100
O1187       O  0.84789212  0.73491686  0.45836301    -0.73700
O1188       O  0.84863270  0.82008303  0.05496040    -0.74600
O1189       O  0.87514574  0.82020211  0.46396884    -0.63300
O1190       O  0.82165852  0.73457178  0.54679568    -0.71700
O1191       O  0.88658282  0.70130266  0.06218570    -0.71200
O1192       O  0.94023335  0.79603410  0.98925864    -0.62500
O1193       O  0.91133992  0.78850138  0.07832773    -0.75000
O1194       O  0.91633827  0.71096558  0.47378203    -0.73800
Cu1195     Cu  0.84600796  0.77860371  0.50583183     1.04600
Cu1196     Cu  0.91607761  0.74858274  0.02686612     1.04300
C1197       C  0.88241492  0.71038580  0.45006189     0.92500
C1198       C  0.87933107  0.81715389  0.08269924     0.91700
C1199       C  0.91735746  0.81949449  0.46222112     0.83800
C1200       C  0.84427829  0.70289737  0.56448432     0.90100
C1201       C  0.80795431  0.89877354  0.45691212    -0.14100
C1202       C  0.84102032  0.42865580  0.44639410     0.08100
C1203       C  0.86447276  0.44235500  0.48116526    -0.14100
C1204       C  0.84108707  0.44723835  0.02070384    -0.14100
C1205       C  0.79733595  0.93290074  0.02560653     0.08100
C1206       C  0.78313374  0.90369248  0.99601195    -0.14100
H1207       H  0.79336131  0.88187324  0.43125682     0.12100
H1208       H  0.89434843  0.46013069  0.47503212     0.12100
H1209       H  0.85485517  0.46650926  0.04507915     0.12100
H1210       H  0.75128769  0.88911964  0.00072384     0.12100
C1211       C  0.68534690  0.58746406  0.24109239    -0.14100
C1212       C  0.67589705  0.04366695  0.23557678     0.08100
C1213       C  0.64794011  0.02309856  0.26664840    -0.14100
C1214       C  0.63902784  0.04261868  0.30653251    -0.14100
C1215       C  0.66388835  0.57819403  0.31633541     0.08100
C1216       C  0.67647448  0.60581867  0.28134223    -0.14100
H1217       H  0.70352068  0.60586965  0.21620532     0.12100
H1218       H  0.63695227  0.99072088  0.26201542     0.12100
H1219       H  0.62354094  0.02341211  0.33262299     0.12100
H1220       H  0.69076349  0.63651716  0.28731595     0.12100
C1221       C  0.51798613  0.84131547  0.44213887    -0.14100
C1222       C  0.52421380  0.79812158  0.42865778     0.08100
C1223       C  0.49410152  0.78278479  0.90004586    -0.14100
C1224       C  0.95318682  0.80606919  0.89526987    -0.14100
C1225       C  0.94169542  0.83879558  0.42485956     0.08100
C1226       C  0.97664779  0.86314971  0.43737374    -0.14100
H1227       H  0.54264789  0.85581557  0.46093228     0.12100
H1228       H  0.49975349  0.75124860  0.88611180     0.12100
H1229       H  0.92721556  0.79069618  0.87901139     0.12100
H1230       H  0.96958892  0.89279549  0.45459096     0.12100
C1231       C  0.74241572  0.68915470  0.09007803    -0.14100
C1232       C  0.73683222  0.67951703  0.54636940     0.08100
C1233       C  0.76804800  0.65056376  0.52645831    -0.14100
C1234       C  0.80861190  0.64078920  0.54636947    -0.14100
C1235       C  0.81916712  0.66598221  0.58122842     0.08100
C1236       C  0.78341469  0.67915992  0.10876303    -0.14100
H1237       H  0.71727023  0.70803091  0.10810241     0.12100
H1238       H  0.76312385  0.63921083  0.49430650     0.12100
H1239       H  0.83498725  0.62425968  0.52765313     0.12100
H1240       H  0.78972435  0.69306627  0.13949533     0.12100
C1241       C  0.89347425  0.95789729  0.30055452    -0.14100
C1242       C  0.92307730  0.94708668  0.33405283     0.08100
C1243       C  0.43600282  0.98164020  0.35791419    -0.14100
C1244       C  0.44028758  0.52184971  0.33602581    -0.14100
C1245       C  0.92647966  0.52757247  0.29287353     0.08100
C1246       C  0.89809135  0.49765789  0.27719903    -0.14100
H1247       H  0.87731732  0.93223556  0.28521675     0.12100
H1248       H  0.45380147  0.97512708  0.38751751     0.12100
H1249       H  0.45907240  0.54622034  0.35056453     0.12100
H1250       H  0.88418625  0.50265652  0.24544086     0.12100
C1251       C  0.09205322  0.74028578  0.19271155    -0.14100
C1252       C  0.04756062  0.73582400  0.18160117     0.08100
C1253       C  0.52833365  0.76671025  0.15229859    -0.14100
C1254       C  0.54938767  0.80585770  0.14349810    -0.14100
C1255       C  0.08448273  0.81536718  0.16978202     0.08100
C1256       C  0.11179888  0.77993082  0.18390992    -0.14100
H1257       H  0.10972100  0.71531238  0.21193050     0.12100
H1258       H  0.49575356  0.76258147  0.13986252     0.12100
H1259       H  0.53097073  0.83206834  0.12662283     0.12100
H1260       H  0.14273452  0.78547611  0.19909770     0.12100
C1261       C  0.90915190  0.65944919  0.84086005     0.02400
C1262       C  0.91275279  0.68497461  0.87732650    -0.13700
C1263       C  0.88226034  0.68086581  0.91315888    -0.00100
C1264       C  0.85010174  0.64905394  0.91324069    -0.12300
C1265       C  0.84796399  0.62127678  0.87829343     0.02400
C1266       C  0.87671761  0.62795459  0.84191536    -0.11700
H1267       H  0.93787691  0.70879029  0.87715516     0.08000
H1268       H  0.82748663  0.64533168  0.94112614     0.05500
H1269       H  0.87474778  0.60754006  0.81436164     0.05400
C1270       C  0.91293566  0.88120140  0.67941389     0.02400
C1271       C  0.87626602  0.91139436  0.68327977    -0.13700
C1272       C  0.83903260  0.90805516  0.65768309    -0.00100
C1273       C  0.84028658  0.87618348  0.62604452    -0.12300
C1274       C  0.87765784  0.84762306  0.61952068     0.02400
C1275       C  0.91327671  0.84949098  0.64760949    -0.11700
H1276       H  0.87609775  0.93636280  0.70689263     0.08000
H1277       H  0.81225974  0.87466522  0.60527572     0.05500
H1278       H  0.94185459  0.82702770  0.64415505     0.05400
C1279       C  0.68149728  0.91305797  0.88365408     0.02400
C1280       C  0.68574267  0.87729074  0.91380697    -0.13700
C1281       C  0.65970108  0.84087813  0.91029989    -0.00100
C1282       C  0.62751499  0.84205816  0.87821398    -0.12300
C1283       C  0.62077956  0.87841327  0.84970045     0.02400
C1284       C  0.64911245  0.91317577  0.85184429    -0.11700
H1285       H  0.71001702  0.87714256  0.93868297     0.08000
H1286       H  0.60658742  0.81465500  0.87629060     0.05500
H1287       H  0.64542547  0.94094365  0.82937856     0.05400
C1288       C  0.62230430  0.56036953  0.58843753     0.02400
C1289       C  0.58858772  0.55975167  0.62138678    -0.13700
C1290       C  0.55483261  0.59284022  0.62318045    -0.00100
C1291       C  0.55436867  0.62654987  0.59067447    -0.12300
C1292       C  0.58750947  0.62763570  0.55724502     0.02400
C1293       C  0.62122193  0.59413332  0.55635089    -0.11700
H1294       H  0.59078817  0.53556360  0.64785773     0.08000
H1295       H  0.53035214  0.65377542  0.59334678     0.05500
H1296       H  0.64868006  0.59622357  0.53273162     0.05400
O1297       O  0.48599515  0.61174465  0.66065728    -0.73700
O1298       O  0.92269415  0.66525828  0.76444946    -0.74600
O1299       O  0.98224768  0.69431730  0.69160364    -0.63300
O1300       O  0.92760211  0.58222314  0.73462198    -0.71700
O1301       O  0.48778731  0.56839611  0.77318831    -0.71200
O1302       O  0.54000795  0.67733564  0.73252226    -0.62500
O1303       O  0.98107758  0.64989630  0.80505137    -0.75000
O1304       O  0.54482626  0.59539538  0.70038495    -0.73800
Cu1305     Cu  0.95255865  0.63904696  0.71134312     1.04600
Cu1306     Cu  0.51538831  0.62229683  0.75395105     1.04300
C1307       C  0.52672300  0.59858736  0.66339128     0.92500
C1308       C  0.93979181  0.66110818  0.80182122     0.91700
C1309       C  0.02173414  0.70106305  0.70283146     0.83800
C1310       C  0.94807567  0.56043764  0.76462408     0.90100
O1311       O  0.67787589  0.73257844  0.53994655    -0.73700
O1312       O  0.56671995  0.77832050  0.48884140    -0.74600
O1313       O  0.59230429  0.70483098  0.54613575    -0.63300
O1314       O  0.65124939  0.80610242  0.98129460    -0.71700
O1315       O  0.66354368  0.76430063  0.92475050    -0.71200
O1316       O  0.60662230  0.66368736  0.48940698    -0.62500
O1317       O  0.57797722  0.73779592  0.93115016    -0.75000
O1318       O  0.69237456  0.69097422  0.98361133    -0.73800
Cu1319     Cu  0.62165746  0.75668012  0.51600363     1.04600
Cu1320     Cu  0.63569054  0.71264686  0.95528748     1.04300
C1321       C  0.70081355  0.70200495  0.02189519     0.92500
C1322       C  0.55741512  0.76929628  0.95037585     0.91700
C1323       C  0.59388617  0.66747200  0.52915243     0.83800
C1324       C  0.66113681  0.80203667  0.94084474     0.90100
O1325       O  0.76089034  0.92348290  0.66058997    -0.73700
O1326       O  0.65883113  0.49147036  0.60534828    -0.74600
O1327       O  0.73486379  0.93364827  0.57667054    -0.63300
O1328       O  0.68613884  0.98231521  0.68977566    -0.71700
O1329       O  0.72948329  0.53810003  0.67824517    -0.71200
O1330       O  0.77563467  0.49174765  0.56820949    -0.62500
O1331       O  0.70090042  0.54837518  0.59461226    -0.75000
O1332       O  0.80397140  0.97973772  0.65073085    -0.73800
Cu1333     Cu  0.70853765  0.95577713  0.63353657     1.04600
Cu1334     Cu  0.75371252  0.51641967  0.62269171     1.04300
C1335       C  0.79952532  0.93905002  0.65909110     0.92500
C1336       C  0.66281488  0.53164785  0.59454003     0.91700
C1337       C  0.76698913  0.95357797  0.55781057     0.83800
C1338       C  0.69807124  0.01990385  0.69966911     0.90100
O1339       O  0.48953525  0.94152098  0.79300831    -0.73700
O1340       O  0.56544153  0.88270899  0.70298753    -0.74600
O1341       O  0.97525140  0.91401284  0.70909385    -0.63300
O1342       O  0.58013158  0.91028106  0.78917968    -0.71700
O1343       O  0.55474965  0.85066928  0.82195578    -0.71200
O1344       O  0.95755361  0.84870433  0.73533575    -0.62500
O1345       O  0.04771260  0.82075704  0.73739451    -0.75000
O1346       O  0.96213608  0.87969523  0.81929627    -0.73800
Cu1347     Cu  0.52862962  0.91443714  0.74789949     1.04600
Cu1348     Cu  0.00527049  0.84770776  0.77977336     1.04300
C1349       C  0.96106361  0.92106466  0.81671770     0.92500
C1350       C  0.06699336  0.84134190  0.70572138     0.91700
C1351       C  0.95032307  0.88147733  0.70933687     0.83800
C1352       C  0.58360333  0.87991136  0.81870572     0.90100
O1353       O  0.71043106  0.97504112  0.91597912    -0.73700
O1354       O  0.78735966  0.58064758  0.91020711    -0.74600
O1355       O  0.69937417  0.56249803  0.88356482    -0.63300
O1356       O  0.79615807  0.49257297  0.94153977    -0.71700
O1357       O  0.82316116  0.96573530  0.87960066    -0.71200
O1358       O  0.73471259  0.04519372  0.82160354    -0.62500
O1359       O  0.82117579  0.55595867  0.85050187    -0.75000
O1360       O  0.73705919  0.95746758  0.85063707    -0.73800
Cu1361     Cu  0.74761374  0.52876245  0.91513530     1.04600
Cu1362     Cu  0.78028683  0.00585982  0.84834021     1.04300
C1363       C  0.71128833  0.95005055  0.88375168     0.92500
C1364       C  0.81718976  0.58441725  0.87973561     0.91700
C1365       C  0.70158150  0.56313384  0.84224598     0.83800
C1366       C  0.82135510  0.46522091  0.92083222     0.90100
O1367       O  0.84787709  0.73493930  0.95836352    -0.73700
O1368       O  0.84863644  0.82006932  0.55495325    -0.74600
O1369       O  0.87513699  0.82022226  0.96397477    -0.63300
O1370       O  0.82164788  0.73458845  0.04679740    -0.71700
O1371       O  0.88659360  0.70129104  0.56219242    -0.71200
O1372       O  0.94024174  0.79601687  0.48925571    -0.62500
O1373       O  0.91134486  0.78849407  0.57832484    -0.75000
O1374       O  0.91632424  0.71098592  0.97377613    -0.73800
Cu1375     Cu  0.84599837  0.77862236  0.00583592     1.04600
Cu1376     Cu  0.91608722  0.74856870  0.52686789     1.04300
C1377       C  0.88239883  0.71040810  0.95005850     0.92500
C1378       C  0.87933376  0.81714493  0.58269318     0.91700
C1379       C  0.91734880  0.81951348  0.96222571     0.83800
C1380       C  0.84426754  0.70291022  0.06447962     0.90100
C1381       C  0.80795286  0.89879618  0.95689979    -0.14100
C1382       C  0.84101969  0.42867684  0.94637967     0.08100
C1383       C  0.86447602  0.44237536  0.98114839    -0.14100
C1384       C  0.84107819  0.44722222  0.52071726    -0.14100
C1385       C  0.79732633  0.93288336  0.52561510     0.08100
C1386       C  0.78312933  0.90367245  0.49602064    -0.14100
H1387       H  0.79335557  0.88189758  0.93124561     0.12100
H1388       H  0.89435015  0.46015306  0.97501236     0.12100
H1389       H  0.85484343  0.46649438  0.54509326     0.12100
H1390       H  0.75128331  0.88909910  0.50072984     0.12100
C1391       C  0.68531044  0.58744950  0.74108439    -0.14100
C1392       C  0.67586965  0.04364664  0.73557509     0.08100
C1393       C  0.64792224  0.02307651  0.76665383    -0.14100
C1394       C  0.63901014  0.04260240  0.80653525    -0.14100
C1395       C  0.66386425  0.57818768  0.81633120     0.08100
C1396       C  0.67643818  0.60580970  0.78133157    -0.14100
H1397       H  0.70347571  0.60585586  0.71619157     0.12100
H1398       H  0.63694245  0.99069440  0.76202788     0.12100
H1399       H  0.62353179  0.02339693  0.83263115     0.12100
H1400       H  0.69071915  0.63651403  0.78729745     0.12100
C1401       C  0.51797953  0.84132745  0.94212963    -0.14100
C1402       C  0.52420341  0.79813351  0.92864789     0.08100
C1403       C  0.49411772  0.78277186  0.40005040    -0.14100
C1404       C  0.95320243  0.80605228  0.39526812    -0.14100
C1405       C  0.94168587  0.83881279  0.92486266     0.08100
C1406       C  0.97664166  0.86316442  0.93737322    -0.14100
H1407       H  0.54264524  0.85582657  0.96091903     0.12100
H1408       H  0.49977322  0.75123585  0.38611647     0.12100
H1409       H  0.92723484  0.79067790  0.37900582     0.12100
H1410       H  0.96958698  0.89280942  0.95459231     0.12100
C1411       C  0.74242880  0.68915364  0.59009511    -0.14100
C1412       C  0.73682451  0.67952330  0.04635008     0.08100
C1413       C  0.76804449  0.65057528  0.02643795    -0.14100
C1414       C  0.80860757  0.64080256  0.04635125    -0.14100
C1415       C  0.81915656  0.66599171  0.08121535     0.08100
C1416       C  0.78342888  0.67915702  0.60877745    -0.14100
H1417       H  0.71728691  0.70803454  0.60811910     0.12100
H1418       H  0.76312377  0.63922555  0.99428416     0.12100
H1419       H  0.83498616  0.62427829  0.02763480     0.12100
H1420       H  0.78974309  0.69306649  0.63950738     0.12100
C1421       C  0.89346459  0.95790485  0.80054062    -0.14100
C1422       C  0.92306629  0.94709438  0.83403996     0.08100
C1423       C  0.43598641  0.98164553  0.85790775    -0.14100
C1424       C  0.44026594  0.52185813  0.83602654    -0.14100
C1425       C  0.92645970  0.52758498  0.79287316     0.08100
C1426       C  0.89807868  0.49766747  0.77719205    -0.14100
H1427       H  0.87731356  0.93224229  0.78519784     0.12100
H1428       H  0.45378503  0.97513120  0.88751070     0.12100
H1429       H  0.45904543  0.54622996  0.85056979     0.12100
H1430       H  0.88417635  0.50266706  0.74543205     0.12100
C1431       C  0.09203857  0.74029545  0.69270039    -0.14100
C1432       C  0.04754456  0.73583528  0.68159405     0.08100
C1433       C  0.52831368  0.76672262  0.65229300    -0.14100
C1434       C  0.54936910  0.80586911  0.64349000    -0.14100
C1435       C  0.08447033  0.81537693  0.66977002     0.08100
C1436       C  0.11178590  0.77993926  0.68389588    -0.14100
H1437       H  0.10970712  0.71532120  0.71191817     0.12100
H1438       H  0.49573223  0.76259494  0.63986004     0.12100
H1439       H  0.53095196  0.83208039  0.62661645     0.12100
H1440       H  0.14272377  0.78548309  0.69908021     0.12100
loop_ 
_geom_bond_atom_site_label_1 
_geom_bond_atom_site_label_2 
_geom_bond_distance 
_geom_bond_site_symmetry_2 
_ccdc_geom_bond_type 
C1            C2   1.409       .  A
C1            C6   1.409       .  A
C1           C48   1.490       .  S
C2            C3   1.416       .  A
C2            H7   1.079       .  S
C3            C4   1.411       .  A
C3          C117   1.486       .  S
C4            C5   1.409       .  A
C4            H8   1.083       .  S
C5            C6   1.406       .  A
C5          C104   1.499       .  S
C6            H9   1.083       .  S
C10          C11   1.414       .  A
C10          C15   1.412       .  A
C10          C91   1.484       .  S
C11          C12   1.407       .  A
C11          H16   1.080       .  S
C12          C13   1.410       .  A
C12          C75   1.489       .  S
C13          C14   1.408       .  A
C13          H17   1.083       .  S
C14          C15   1.410       .  A
C14         C118   1.501       .  S
C15          H18   1.083       .  S
C19          C20   1.416       .  A
C19          C24   1.410       .  A
C19         C103   1.485       .  S
C20          C21   1.410       .  A
C20          H25   1.080       .  S
C21          C22   1.410       .  A
C21          C64   1.492       .  S
C22          C23   1.407       .  A
C22          H26   1.083       .  S
C23          C24   1.407       .  A
C23          C92   1.498       .  S
C24          H27   1.083       .  S
C28          C29   1.410       .  A
C28          C33   1.406       .  A
C28          C76   1.485       .  S
C29          C30   1.405       .  A
C29          H34   1.084       .  S
C30          C31   1.414       .  A
C30          C47   1.487       .  S
C31          C32   1.409       .  A
C31          H35   1.084       .  S
C32          C33   1.412       .  A
C32          C63   1.489       .  S
C33          H36   1.084       .  S
O37          C47   1.278   1_655  A
O37        Cu765   2.018       .  S
O38          C48   1.280       .  A
O38         Cu45   2.017       .  S
O39          C49   1.281       .  A
O39         Cu45   2.023       .  S
O40          C50   1.280       .  A
O40         Cu45   2.032       .  S
O41         C770   1.273       .  A
O41         Cu46   1.954   1_655  S
O42         C769   1.273       .  A
O42         Cu46   1.963       .  S
O43          C48   1.281       .  A
O43        Cu766   2.044       .  S
O44          C47   1.282       .  A
O44         Cu46   2.033       .  S
Cu45        O757   2.018       .  S
Cu45       Cu766   2.370       .  S
Cu46        O763   2.044   1_455  S
Cu46       Cu765   2.370   1_455  S
C49         C172   1.472       .  S
C49         O762   1.273       .  A
C50         C165   1.469       .  S
C50         O761   1.273       .  A
O51         C241   1.274       .  A
O51         Cu59   1.973       .  S
O52         C242   1.274       .  A
O52         Cu59   1.959   1_556  S
O53          C63   1.282       .  A
O53         Cu59   2.037       .  S
O54          C64   1.282       .  A
O54        Cu239   2.046       .  S
O55          C64   1.280       .  A
O55         Cu60   2.018       .  S
O56          C63   1.279   1_556  A
O56        Cu240   2.019       .  S
O57          C62   1.279       .  A
O57         Cu60   2.024       .  S
O58          C61   1.280       .  A
O58         Cu60   2.020       .  S
Cu59        O234   2.046   1_554  S
Cu59       Cu240   2.370   1_554  S
Cu60        O236   2.019       .  S
Cu60       Cu239   2.370       .  S
C61         C152   1.474       .  S
C61         O231   1.274       .  A
C62         C142   1.468       .  S
C62         O232   1.274       .  A
O65          C75   1.279       .  A
O65         Cu73   2.013       .  S
O66          C76   1.278   1_565  A
O66        Cu433   2.017       .  S
O67          C77   1.280       .  A
O67         Cu73   2.027       .  S
O68          C78   1.281       .  A
O68         Cu73   2.026       .  S
O69         C438   1.274       .  A
O69         Cu74   1.966       .  S
O70         C437   1.273       .  A
O70         Cu74   1.952   1_565  S
O71          C76   1.281       .  A
O71         Cu74   2.033       .  S
O72          C75   1.281       .  A
O72        Cu434   2.042       .  S
Cu73        O426   2.017       .  S
Cu73       Cu434   2.370       .  S
Cu74        O432   2.042   1_545  S
Cu74       Cu433   2.370   1_545  S
C77         C125   1.468       .  S
C77         O430   1.273       .  A
C78         C132   1.473       .  S
C78         O429   1.274       .  A
O79         C809   1.279       .  A
O79         Cu87   1.973   1_655  S
O80         C810   1.272       .  A
O80         Cu87   1.998       .  S
O81          C91   1.281       .  A
O81        Cu807   2.042       .  S
O82          C92   1.282       .  A
O82         Cu87   2.041       .  S
O83          C92   1.281       .  A
O83        Cu808   2.024       .  S
O84          C91   1.279       .  A
O84         Cu88   2.023       .  S
O85          C90   1.279       .  A
O85         Cu88   1.973       .  S
O86          C89   1.272       .  A
O86         Cu88   2.000       .  S
Cu87        O801   2.042   1_455  S
Cu87       Cu808   2.369       .  S
Cu88        O803   2.024       .  S
Cu88       Cu807   2.369       .  S
C89         C162   1.462       .  S
C89         O799   1.279       .  A
C90         C175   1.461       .  S
C90         O800   1.272       .  A
O93         C103   1.281       .  A
O93        Cu461   2.042       .  S
O94         C104   1.282       .  A
O94        Cu101   2.041       .  S
O95         C105   1.273       .  A
O95        Cu101   2.005       .  S
O96         C106   1.280       .  A
O96        Cu101   1.975   1_565  S
O97         C466   1.271       .  A
O97        Cu102   1.992       .  S
O98         C465   1.278       .  A
O98        Cu102   1.969       .  S
O99         C104   1.281       .  A
O99        Cu462   2.026       .  S
O100        C103   1.279       .  A
O100       Cu102   2.024       .  S
Cu101       O453   2.042   1_545  S
Cu101      Cu462   2.368       .  S
Cu102       O459   2.026       .  S
Cu102      Cu461   2.368       .  S
C105        C135   1.461       .  S
C105        O458   1.278       .  A
C106        C122   1.462       .  S
C106        O457   1.271       .  A
O107        C117   1.279       .  A
O107       Cu115   2.026       .  S
O108        C118   1.281       .  A
O108       Cu295   2.027       .  S
O109        C119   1.270       .  A
O109       Cu115   1.992       .  S
O110        C120   1.278       .  A
O110       Cu115   1.965       .  S
O111        C300   1.273       .  A
O111       Cu116   2.005       .  S
O112        C299   1.280       .  A
O112       Cu116   1.978   1_556  S
O113        C118   1.282       .  A
O113       Cu116   2.044       .  S
O114        C117   1.281       .  A
O114       Cu296   2.044       .  S
Cu115       O288   2.027       .  S
Cu115      Cu296   2.367       .  S
Cu116       O294   2.044   1_554  S
Cu116      Cu295   2.367       .  S
C119        C145   1.464       .  S
C119        O292   1.280       .  A
C120        C155   1.462       .  S
C120        O291   1.273       .  A
C121        C482   1.410       .  A
C121        C306   1.405       .  A
C121        H127   1.083       .  S
C122        C123   1.397       .  A
C122        C481   1.410       .  A
C123        C304   1.396       .  A
C123        H128   1.083       .  S
C124        C303   1.396   1_554  A
C124        C485   1.412       .  A
C124        H129   1.084       .  S
C125        C126   1.400   1_554  A
C125        C484   1.412       .  A
C126        C301   1.405       .  A
C126        H130   1.082   1_556  S
C131        C136   1.396       .  A
C131        C492   1.411       .  A
C131        H137   1.083       .  S
C132        C133   1.404       .  A
C132        C491   1.411       .  A
C133        C134   1.402       .  A
C133        H138   1.083       .  S
C134        C495   1.407       .  A
C134        H139   1.084       .  S
C135        C136   1.399       .  A
C135        C494   1.407       .  A
C136        H140   1.083       .  S
C141        C142   1.412       .  A
C141        C866   1.396   1_455  A
C141        H147   1.084       .  S
C142        C323   1.401   1_455  A
C143        C322   1.401   1_655  A
C143        C864   1.405       .  A
C143        H148   1.081       .  S
C144        C863   1.405       .  A
C144        C325   1.410       .  A
C144        H149   1.084       .  S
C145        C146   1.398       .  A
C145        C324   1.410       .  A
C146        C861   1.396       .  A
C146        H150   1.083       .  S
C151        C156   1.399       .  A
C151        C332   1.411       .  A
C151        H157   1.083       .  S
C152        C153   1.406       .  A
C152        C331   1.411       .  A
C153        C154   1.403       .  A
C153        H158   1.083       .  S
C154        C155   1.406       .  A
C154        H159   1.083       .  S
C155        C336   1.401       .  A
C156        C335   1.401       .  A
C156        H160   1.083       .  S
C161        C162   1.410       .  A
C161        C526   1.405       .  A
C161        H167   1.082       .  S
C162        C883   1.397       .  A
C163        C882   1.397       .  A
C163        C524   1.395       .  A
C163        H168   1.083       .  S
C164        C523   1.395   1_545  A
C164        C885   1.411       .  A
C164        H169   1.083       .  S
C165        C166   1.400   1_545  A
C165        C884   1.411       .  A
C166        C521   1.405       .  A
C166        H170   1.083   1_565  S
C171        C172   1.411       .  A
C171        C176   1.397       .  A
C171        H177   1.083       .  S
C172        C893   1.405       .  A
C173        C174   1.402       .  A
C173        C892   1.405       .  A
C173        H178   1.083   1_455  S
C174        C895   1.406       .  A
C174        H179   1.084       .  S
C175        C176   1.400       .  A
C175        C894   1.406       .  A
C176        H180   1.083       .  S
C181        C182   1.409       .  A
C181        C186   1.409       .  A
C181        C228   1.490       .  S
C182        C183   1.416       .  A
C182        H187   1.079       .  S
C183        C184   1.411       .  A
C183        C297   1.486       .  S
C184        C185   1.409       .  A
C184        H188   1.083       .  S
C185        C186   1.406       .  A
C185        C284   1.499       .  S
C186        H189   1.083       .  S
C190        C191   1.414       .  A
C190        C195   1.412       .  A
C190        C271   1.484       .  S
C191        C192   1.407       .  A
C191        H196   1.080       .  S
C192        C193   1.410       .  A
C192        C255   1.489       .  S
C193        C194   1.408       .  A
C193        H197   1.083       .  S
C194        C195   1.410       .  A
C194        C298   1.501       .  S
C195        H198   1.083       .  S
C199        C200   1.416       .  A
C199        C204   1.410       .  A
C199        C283   1.485       .  S
C200        C201   1.410       .  A
C200        H205   1.080       .  S
C201        C202   1.410       .  A
C201        C244   1.492       .  S
C202        C203   1.407       .  A
C202        H206   1.083       .  S
C203        C204   1.407       .  A
C203        C272   1.498       .  S
C204        H207   1.083       .  S
C208        C209   1.410       .  A
C208        C213   1.406       .  A
C208        C256   1.485       .  S
C209        C210   1.405       .  A
C209        H214   1.084       .  S
C210        C211   1.414       .  A
C210        C227   1.487       .  S
C211        C212   1.409       .  A
C211        H215   1.084       .  S
C212        C213   1.412       .  A
C212        C243   1.489       .  S
C213        H216   1.084       .  S
O217        C227   1.278   1_655  A
O217       Cu945   2.018       .  S
O218        C228   1.280       .  A
O218       Cu225   2.017       .  S
O219        C229   1.281       .  A
O219       Cu225   2.023       .  S
O220        C230   1.280       .  A
O220       Cu225   2.032       .  S
O221        C950   1.273       .  A
O221       Cu226   1.954   1_655  S
O222        C949   1.273       .  A
O222       Cu226   1.963       .  S
O223        C228   1.281       .  A
O223       Cu946   2.043       .  S
O224        C227   1.282       .  A
O224       Cu226   2.033       .  S
Cu225       O937   2.018       .  S
Cu225      Cu946   2.370       .  S
Cu226       O943   2.044   1_455  S
Cu226      Cu945   2.370   1_455  S
C229        C352   1.472       .  S
C229        O942   1.273       .  A
C230        C345   1.469       .  S
C230        O941   1.273       .  A
O231       Cu239   1.973       .  S
O232       Cu239   1.959       .  S
O233        C243   1.282       .  A
O233       Cu239   2.037       .  S
O234        C244   1.282       .  A
O235        C244   1.280       .  A
O235       Cu240   2.018       .  S
O236        C243   1.279       .  A
O237        C242   1.279       .  A
O237       Cu240   2.025       .  S
O238        C241   1.280   1_556  A
O238       Cu240   2.020       .  S
C241        C332   1.474       .  S
C242        C322   1.468       .  S
O245        C255   1.279       .  A
O245       Cu253   2.013       .  S
O246        C256   1.278   1_565  A
O246       Cu613   2.017       .  S
O247        C257   1.280       .  A
O247       Cu253   2.027       .  S
O248        C258   1.281       .  A
O248       Cu253   2.026       .  S
O249        C618   1.274       .  A
O249       Cu254   1.966       .  S
O250        C617   1.273       .  A
O250       Cu254   1.952   1_565  S
O251        C256   1.281       .  A
O251       Cu254   2.033       .  S
O252        C255   1.281       .  A
O252       Cu614   2.042       .  S
Cu253       O606   2.017       .  S
Cu253      Cu614   2.370       .  S
Cu254       O612   2.042   1_545  S
Cu254      Cu613   2.370   1_545  S
C257        C305   1.468       .  S
C257        O610   1.273       .  A
C258        C312   1.473       .  S
C258        O609   1.274       .  A
O259        C989   1.279       .  A
O259       Cu267   1.973   1_655  S
O260        C990   1.272       .  A
O260       Cu267   1.998       .  S
O261        C271   1.281       .  A
O261       Cu987   2.042       .  S
O262        C272   1.282       .  A
O262       Cu267   2.041       .  S
O263        C272   1.281       .  A
O263       Cu988   2.024       .  S
O264        C271   1.279       .  A
O264       Cu268   2.023       .  S
O265        C270   1.279       .  A
O265       Cu268   1.973       .  S
O266        C269   1.272       .  A
O266       Cu268   2.000       .  S
Cu267       O981   2.042   1_455  S
Cu267      Cu988   2.369       .  S
Cu268       O983   2.024       .  S
Cu268      Cu987   2.369       .  S
C269        C342   1.462       .  S
C269        O979   1.279       .  A
C270        C355   1.461       .  S
C270        O980   1.272       .  A
O273        C283   1.281       .  A
O273       Cu641   2.042       .  S
O274        C284   1.282       .  A
O274       Cu281   2.041       .  S
O275        C285   1.273       .  A
O275       Cu281   2.005       .  S
O276        C286   1.280       .  A
O276       Cu281   1.975   1_565  S
O277        C646   1.271       .  A
O277       Cu282   1.992       .  S
O278        C645   1.278       .  A
O278       Cu282   1.969       .  S
O279        C284   1.281       .  A
O279       Cu642   2.026       .  S
O280        C283   1.279       .  A
O280       Cu282   2.024       .  S
Cu281       O633   2.042   1_545  S
Cu281      Cu642   2.368       .  S
Cu282       O639   2.026       .  S
Cu282      Cu641   2.368       .  S
C285        C315   1.461       .  S
C285        O638   1.278       .  A
C286        C302   1.462       .  S
C286        O637   1.271       .  A
O287        C297   1.279       .  A
O287       Cu295   2.026   1_556  S
O288        C298   1.281       .  A
O289        C299   1.270       .  A
O289       Cu295   1.992   1_556  S
O290        C300   1.278       .  A
O290       Cu295   1.965       .  S
O291       Cu296   2.005       .  S
O292       Cu296   1.978       .  S
O293        C298   1.282       .  A
O293       Cu296   2.044       .  S
O294        C297   1.281       .  A
C299        C325   1.464       .  S
C300        C335   1.462       .  S
C301        C662   1.410       .  A
C301        H307   1.083       .  S
C302        C661   1.410       .  A
C302        C303   1.397       .  A
C303        H308   1.083       .  S
C304        C665   1.412       .  A
C304        H309   1.084       .  S
C305        C664   1.412       .  A
C305        C306   1.400       .  A
C306        H310   1.082       .  S
C311        C672   1.411       .  A
C311        C316   1.396       .  A
C311        H317   1.083       .  S
C312        C671   1.411       .  A
C312        C313   1.404       .  A
C313        C314   1.402       .  A
C313        H318   1.083       .  S
C314        C675   1.407       .  A
C314        H319   1.084       .  S
C315        C674   1.407       .  A
C315        C316   1.399       .  A
C316        H320   1.083       .  S
C321        C322   1.412       .  A
C321       C1046   1.396   1_455  A
C321        H327   1.084       .  S
C323       C1044   1.405       .  A
C323        H328   1.081       .  S
C324       C1043   1.405       .  A
C324        H329   1.084       .  S
C325        C326   1.398       .  A
C326       C1041   1.396       .  A
C326        H330   1.083       .  S
C331        C336   1.399       .  A
C331        H337   1.083       .  S
C332        C333   1.406       .  A
C333        C334   1.403       .  A
C333        H338   1.083   1_554  S
C334        C335   1.406       .  A
C334        H339   1.083       .  S
C336        H340   1.083       .  S
C341        C342   1.410       .  A
C341        C706   1.405       .  A
C341        H347   1.082       .  S
C342       C1063   1.397       .  A
C343       C1062   1.397       .  A
C343        C704   1.395       .  A
C343        H348   1.083       .  S
C344        C703   1.395   1_545  A
C344       C1065   1.411       .  A
C344        H349   1.083       .  S
C345       C1064   1.411       .  A
C345        C346   1.400   1_545  A
C346        C701   1.405       .  A
C346        H350   1.082   1_565  S
C351        C352   1.411       .  A
C351        C356   1.397       .  A
C351        H357   1.083       .  S
C352       C1073   1.405       .  A
C353       C1072   1.405       .  A
C353        C354   1.402       .  A
C353        H358   1.083   1_455  S
C354       C1075   1.406       .  A
C354        H359   1.084       .  S
C355       C1074   1.406       .  A
C355        C356   1.400       .  A
C356        H360   1.083       .  S
C361        C362   1.409       .  A
C361        C366   1.409       .  A
C361        C408   1.490       .  S
C362        C363   1.416       .  A
C362        H367   1.079       .  S
C363        C364   1.411       .  A
C363        C477   1.486       .  S
C364        C365   1.409       .  A
C364        H368   1.083       .  S
C365        C366   1.406       .  A
C365        C464   1.499       .  S
C366        H369   1.083       .  S
C370        C371   1.414       .  A
C370        C375   1.412       .  A
C370        C451   1.484       .  S
C371        C372   1.407       .  A
C371        H376   1.080       .  S
C372        C373   1.410       .  A
C372        C435   1.489       .  S
C373        C374   1.408       .  A
C373        H377   1.083       .  S
C374        C375   1.410       .  A
C374        C478   1.501       .  S
C375        H378   1.083       .  S
C379        C380   1.416       .  A
C379        C384   1.410       .  A
C379        C463   1.485       .  S
C380        C381   1.410       .  A
C380        H385   1.080       .  S
C381        C382   1.410       .  A
C381        C424   1.492       .  S
C382        C383   1.407       .  A
C382        H386   1.083       .  S
C383        C384   1.407       .  A
C383        C452   1.498       .  S
C384        H387   1.083       .  S
C388        C389   1.410       .  A
C388        C393   1.406       .  A
C388        C436   1.485       .  S
C389        C390   1.405       .  A
C389        H394   1.084       .  S
C390        C391   1.414       .  A
C390        C407   1.487       .  S
C391        C392   1.409       .  A
C391        H395   1.084       .  S
C392        C393   1.412       .  A
C392        C423   1.489       .  S
C393        H396   1.084       .  S
O397        C407   1.278   1_655  A
O397      Cu1125   2.018       .  S
O398        C408   1.280       .  A
O398       Cu405   2.017       .  S
O399        C409   1.281       .  A
O399       Cu405   2.023       .  S
O400        C410   1.280       .  A
O400       Cu405   2.032       .  S
O401       C1130   1.273       .  A
O401       Cu406   1.954   1_655  S
O402       C1129   1.273       .  A
O402       Cu406   1.963       .  S
O403        C408   1.281       .  A
O403      Cu1126   2.044       .  S
O404        C407   1.282       .  A
O404       Cu406   2.033       .  S
Cu405      O1117   2.018       .  S
Cu405     Cu1126   2.370       .  S
Cu406      O1123   2.044   1_455  S
Cu406     Cu1125   2.370   1_455  S
C409        C532   1.472       .  S
C409       O1122   1.273       .  A
C410        C525   1.469       .  S
C410       O1121   1.273       .  A
O411        C601   1.274       .  A
O411       Cu419   1.973       .  S
O412        C602   1.274       .  A
O412       Cu419   1.959   1_556  S
O413        C423   1.282       .  A
O413       Cu419   2.037       .  S
O414        C424   1.282       .  A
O414       Cu599   2.046       .  S
O415        C424   1.280       .  A
O415       Cu420   2.018       .  S
O416        C423   1.279   1_556  A
O416       Cu600   2.019       .  S
O417        C422   1.279       .  A
O417       Cu420   2.024       .  S
O418        C421   1.280       .  A
O418       Cu420   2.020       .  S
Cu419       O594   2.046   1_554  S
Cu419      Cu600   2.370   1_554  S
Cu420       O596   2.019       .  S
Cu420      Cu599   2.370       .  S
C421        C512   1.474       .  S
C421        O591   1.274       .  A
C422        C502   1.468       .  S
C422        O592   1.274       .  A
O425        C435   1.279       .  A
O425       Cu433   2.013       .  S
O426        C436   1.278       .  A
O427        C437   1.280       .  A
O427       Cu433   2.027       .  S
O428        C438   1.281   1_565  A
O428       Cu433   2.026       .  S
O429       Cu434   1.966       .  S
O430       Cu434   1.952       .  S
O431        C436   1.281       .  A
O431       Cu434   2.033       .  S
O432        C435   1.281       .  A
C437        C485   1.468       .  S
C438        C492   1.473       .  S
O439       C1169   1.279       .  A
O439       Cu447   1.973   1_655  S
O440       C1170   1.272       .  A
O440       Cu447   1.998       .  S
O441        C451   1.281       .  A
O441      Cu1167   2.042       .  S
O442        C452   1.282       .  A
O442       Cu447   2.041       .  S
O443        C452   1.281       .  A
O443      Cu1168   2.024       .  S
O444        C451   1.279       .  A
O444       Cu448   2.023       .  S
O445        C450   1.279       .  A
O445       Cu448   1.973       .  S
O446        C449   1.272       .  A
O446       Cu448   2.000       .  S
Cu447      O1161   2.042   1_455  S
Cu447     Cu1168   2.369       .  S
Cu448      O1163   2.024       .  S
Cu448     Cu1167   2.369       .  S
C449        C522   1.462       .  S
C449       O1159   1.279       .  A
C450        C535   1.461       .  S
C450       O1160   1.272       .  A
O453        C463   1.281       .  A
O454        C464   1.282       .  A
O454       Cu461   2.041       .  S
O455        C465   1.273       .  A
O455       Cu461   2.005       .  S
O456        C466   1.280       .  A
O456       Cu461   1.975       .  S
O457       Cu462   1.992   1_565  S
O458       Cu462   1.969       .  S
O459        C464   1.281       .  A
O460        C463   1.279       .  A
O460       Cu462   2.024   1_565  S
C465        C495   1.461       .  S
C466        C482   1.462       .  S
O467        C477   1.279       .  A
O467       Cu475   2.026       .  S
O468        C478   1.281       .  A
O468       Cu655   2.027       .  S
O469        C479   1.270       .  A
O469       Cu475   1.992       .  S
O470        C480   1.278       .  A
O470       Cu475   1.965       .  S
O471        C660   1.273       .  A
O471       Cu476   2.005       .  S
O472        C659   1.280       .  A
O472       Cu476   1.978   1_556  S
O473        C478   1.282       .  A
O473       Cu476   2.044       .  S
O474        C477   1.281       .  A
O474       Cu656   2.044       .  S
Cu475       O648   2.027       .  S
Cu475      Cu656   2.367       .  S
Cu476       O654   2.044   1_554  S
Cu476      Cu655   2.367       .  S
C479        C505   1.464       .  S
C479        O652   1.280       .  A
C480        C515   1.462       .  S
C480        O651   1.273       .  A
C481        C666   1.405       .  A
C481        H487   1.083       .  S
C482        C483   1.397       .  A
C483        C664   1.396       .  A
C483        H488   1.083       .  S
C484        C663   1.396   1_554  A
C484        H489   1.084       .  S
C485        C486   1.400   1_554  A
C486        C661   1.405       .  A
C486        H490   1.082   1_556  S
C491        C496   1.396       .  A
C491        H497   1.083       .  S
C492        C493   1.404       .  A
C493        C494   1.402       .  A
C493        H498   1.083   1_545  S
C494        H499   1.084       .  S
C495        C496   1.399       .  A
C496        H500   1.083       .  S
C501        C502   1.412       .  A
C501       C1226   1.396   1_455  A
C501        H507   1.084       .  S
C502        C683   1.401   1_455  A
C503        C682   1.401   1_655  A
C503       C1224   1.405       .  A
C503        H508   1.081       .  S
C504       C1223   1.405       .  A
C504        C685   1.410       .  A
C504        H509   1.084       .  S
C505        C684   1.410       .  A
C505        C506   1.398       .  A
C506       C1221   1.396       .  A
C506        H510   1.083       .  S
C511        C692   1.411       .  A
C511        C516   1.399       .  A
C511        H517   1.083       .  S
C512        C691   1.411       .  A
C512        C513   1.406       .  A
C513        C514   1.403       .  A
C513        H518   1.083       .  S
C514        C515   1.406       .  A
C514        H519   1.083       .  S
C515        C696   1.401       .  A
C516        C695   1.401       .  A
C516        H520   1.083       .  S
C521        C522   1.410       .  A
C521        H527   1.082       .  S
C522       C1243   1.397       .  A
C523       C1242   1.397       .  A
C523        H528   1.083       .  S
C524       C1245   1.411       .  A
C524        H529   1.083       .  S
C525       C1244   1.411       .  A
C525        C526   1.400       .  A
C526        H530   1.083       .  S
C531        C532   1.411       .  A
C531        C536   1.397       .  A
C531        H537   1.083       .  S
C532       C1253   1.405       .  A
C533       C1252   1.405       .  A
C533        C534   1.402       .  A
C533        H538   1.083   1_455  S
C534       C1255   1.406       .  A
C534        H539   1.084       .  S
C535       C1254   1.406       .  A
C535        C536   1.400       .  A
C536        H540   1.083       .  S
C541        C542   1.409       .  A
C541        C546   1.409       .  A
C541        C588   1.490       .  S
C542        C543   1.416       .  A
C542        H547   1.079       .  S
C543        C544   1.411       .  A
C543        C657   1.486       .  S
C544        C545   1.409       .  A
C544        H548   1.083       .  S
C545        C546   1.406       .  A
C545        C644   1.499       .  S
C546        H549   1.083       .  S
C550        C551   1.414       .  A
C550        C555   1.412       .  A
C550        C631   1.484       .  S
C551        C552   1.407       .  A
C551        H556   1.080       .  S
C552        C553   1.410       .  A
C552        C615   1.489       .  S
C553        C554   1.408       .  A
C553        H557   1.083       .  S
C554        C555   1.410       .  A
C554        C658   1.501       .  S
C555        H558   1.083       .  S
C559        C560   1.416       .  A
C559        C564   1.410       .  A
C559        C643   1.485       .  S
C560        C561   1.410       .  A
C560        H565   1.080       .  S
C561        C562   1.410       .  A
C561        C604   1.492       .  S
C562        C563   1.407       .  A
C562        H566   1.083       .  S
C563        C564   1.407       .  A
C563        C632   1.498       .  S
C564        H567   1.083       .  S
C568        C569   1.410       .  A
C568        C573   1.406       .  A
C568        C616   1.485       .  S
C569        C570   1.405       .  A
C569        H574   1.084       .  S
C570        C571   1.414       .  A
C570        C587   1.487       .  S
C571        C572   1.409       .  A
C571        H575   1.084       .  S
C572        C573   1.412       .  A
C572        C603   1.489       .  S
C573        H576   1.084       .  S
O577        C587   1.278   1_655  A
O577      Cu1305   2.018       .  S
O578        C588   1.280       .  A
O578       Cu585   2.017       .  S
O579        C589   1.281       .  A
O579       Cu585   2.023       .  S
O580        C590   1.280       .  A
O580       Cu585   2.032       .  S
O581       C1310   1.273       .  A
O581       Cu586   1.954   1_655  S
O582       C1309   1.273       .  A
O582       Cu586   1.963       .  S
O583        C588   1.281       .  A
O583      Cu1306   2.043       .  S
O584        C587   1.282       .  A
O584       Cu586   2.033       .  S
Cu585      O1297   2.018       .  S
Cu585     Cu1306   2.370       .  S
Cu586      O1303   2.043   1_455  S
Cu586     Cu1305   2.370   1_455  S
C589        C712   1.472       .  S
C589       O1302   1.273       .  A
C590        C705   1.469       .  S
C590       O1301   1.273       .  A
O591       Cu599   1.973       .  S
O592       Cu599   1.959       .  S
O593        C603   1.282       .  A
O593       Cu599   2.037       .  S
O594        C604   1.282       .  A
O595        C604   1.280       .  A
O595       Cu600   2.018       .  S
O596        C603   1.279       .  A
O597        C602   1.279       .  A
O597       Cu600   2.024       .  S
O598        C601   1.280   1_556  A
O598       Cu600   2.020       .  S
C601        C692   1.474       .  S
C602        C682   1.468       .  S
O605        C615   1.279       .  A
O605       Cu613   2.013       .  S
O606        C616   1.278       .  A
O607        C617   1.280       .  A
O607       Cu613   2.027       .  S
O608        C618   1.281   1_565  A
O608       Cu613   2.026       .  S
O609       Cu614   1.966       .  S
O610       Cu614   1.952       .  S
O611        C616   1.281       .  A
O611       Cu614   2.033       .  S
O612        C615   1.281       .  A
C617        C665   1.468       .  S
C618        C672   1.473       .  S
O619       C1349   1.279       .  A
O619       Cu627   1.973   1_655  S
O620       C1350   1.272       .  A
O620       Cu627   1.998       .  S
O621        C631   1.281       .  A
O621      Cu1347   2.042       .  S
O622        C632   1.282       .  A
O622       Cu627   2.041       .  S
O623        C632   1.281       .  A
O623      Cu1348   2.024       .  S
O624        C631   1.279       .  A
O624       Cu628   2.023       .  S
O625        C630   1.279       .  A
O625       Cu628   1.973       .  S
O626        C629   1.272       .  A
O626       Cu628   2.000       .  S
Cu627      O1341   2.042   1_455  S
Cu627     Cu1348   2.369       .  S
Cu628      O1343   2.024       .  S
Cu628     Cu1347   2.369       .  S
C629        C702   1.462       .  S
C629       O1339   1.279       .  A
C630        C715   1.461       .  S
C630       O1340   1.272       .  A
O633        C643   1.281       .  A
O634        C644   1.282       .  A
O634       Cu641   2.041       .  S
O635        C645   1.273       .  A
O635       Cu641   2.005       .  S
O636        C646   1.280       .  A
O636       Cu641   1.975       .  S
O637       Cu642   1.992   1_565  S
O638       Cu642   1.969       .  S
O639        C644   1.281       .  A
O640        C643   1.279       .  A
O640       Cu642   2.024   1_565  S
C645        C675   1.461       .  S
C646        C662   1.462       .  S
O647        C657   1.279       .  A
O647       Cu655   2.026   1_556  S
O648        C658   1.281       .  A
O649        C659   1.270       .  A
O649       Cu655   1.992   1_556  S
O650        C660   1.278       .  A
O650       Cu655   1.965       .  S
O651       Cu656   2.005       .  S
O652       Cu656   1.978       .  S
O653        C658   1.282       .  A
O653       Cu656   2.044       .  S
O654        C657   1.281       .  A
C659        C685   1.464       .  S
C660        C695   1.462       .  S
C661        H667   1.083       .  S
C662        C663   1.397       .  A
C663        H668   1.083       .  S
C664        H669   1.084       .  S
C665        C666   1.400       .  A
C666        H670   1.082       .  S
C671        C676   1.396       .  A
C671        H677   1.083       .  S
C672        C673   1.404       .  A
C673        C674   1.402       .  A
C673        H678   1.083   1_545  S
C674        H679   1.084       .  S
C675        C676   1.399       .  A
C676        H680   1.083       .  S
C681        C682   1.412       .  A
C681       C1406   1.396   1_455  A
C681        H687   1.084       .  S
C683       C1404   1.405       .  A
C683        H688   1.081       .  S
C684       C1403   1.405       .  A
C684        H689   1.084       .  S
C685        C686   1.398       .  A
C686       C1401   1.396       .  A
C686        H690   1.083       .  S
C691        C696   1.399       .  A
C691        H697   1.083       .  S
C692        C693   1.406       .  A
C693        C694   1.403       .  A
C693        H698   1.083   1_554  S
C694        C695   1.406       .  A
C694        H699   1.083       .  S
C696        H700   1.083       .  S
C701        C702   1.410       .  A
C701        H707   1.082       .  S
C702       C1423   1.397       .  A
C703       C1422   1.397       .  A
C703        H708   1.083       .  S
C704       C1425   1.411       .  A
C704        H709   1.083       .  S
C705       C1424   1.411       .  A
C705        C706   1.400       .  A
C706        H710   1.082       .  S
C711        C712   1.411       .  A
C711        C716   1.397       .  A
C711        H717   1.083       .  S
C712       C1433   1.405       .  A
C713       C1432   1.405       .  A
C713        C714   1.402       .  A
C713        H718   1.083   1_455  S
C714       C1435   1.406       .  A
C714        H719   1.084       .  S
C715       C1434   1.406       .  A
C715        C716   1.400       .  A
C716        H720   1.083       .  S
C721        C722   1.409       .  A
C721        C726   1.409       .  A
C721        C768   1.490       .  S
C722        C723   1.416       .  A
C722        H727   1.079       .  S
C723        C724   1.411       .  A
C723        C837   1.486       .  S
C724        C725   1.409       .  A
C724        H728   1.083       .  S
C725        C726   1.406       .  A
C725        C824   1.499       .  S
C726        H729   1.083       .  S
C730        C731   1.414       .  A
C730        C735   1.412       .  A
C730        C811   1.484       .  S
C731        C732   1.407       .  A
C731        H736   1.080       .  S
C732        C733   1.410       .  A
C732        C795   1.489       .  S
C733        C734   1.408       .  A
C733        H737   1.083       .  S
C734        C735   1.410       .  A
C734        C838   1.501       .  S
C735        H738   1.083       .  S
C739        C740   1.416       .  A
C739        C744   1.410       .  A
C739        C823   1.485       .  S
C740        C741   1.410       .  A
C740        H745   1.080       .  S
C741        C742   1.410       .  A
C741        C784   1.492       .  S
C742        C743   1.407       .  A
C742        H746   1.083       .  S
C743        C744   1.407       .  A
C743        C812   1.498       .  S
C744        H747   1.083       .  S
C748        C749   1.410       .  A
C748        C753   1.406       .  A
C748        C796   1.485       .  S
C749        C750   1.405       .  A
C749        H754   1.084       .  S
C750        C751   1.414       .  A
C750        C767   1.487       .  S
C751        C752   1.409       .  A
C751        H755   1.084       .  S
C752        C753   1.412       .  A
C752        C783   1.489       .  S
C753        H756   1.084       .  S
O757        C767   1.278       .  A
O758        C768   1.280       .  A
O758       Cu765   2.017       .  S
O759        C769   1.281   1_655  A
O759       Cu765   2.023       .  S
O760        C770   1.280       .  A
O760       Cu765   2.032       .  S
O761       Cu766   1.954       .  S
O762       Cu766   1.963       .  S
O763        C768   1.281       .  A
O764        C767   1.282       .  A
O764       Cu766   2.033       .  S
C769        C892   1.472       .  S
C770        C885   1.469       .  S
O771        C961   1.274       .  A
O771       Cu779   1.973       .  S
O772        C962   1.274       .  A
O772       Cu779   1.959   1_556  S
O773        C783   1.282       .  A
O773       Cu779   2.037       .  S
O774        C784   1.282       .  A
O774       Cu959   2.046       .  S
O775        C784   1.280       .  A
O775       Cu780   2.018       .  S
O776        C783   1.279   1_556  A
O776       Cu960   2.019       .  S
O777        C782   1.279       .  A
O777       Cu780   2.024       .  S
O778        C781   1.280       .  A
O778       Cu780   2.020       .  S
Cu779       O954   2.046   1_554  S
Cu779      Cu960   2.370   1_554  S
Cu780       O956   2.019       .  S
Cu780      Cu959   2.370       .  S
C781        C872   1.474       .  S
C781        O951   1.274       .  A
C782        C862   1.468       .  S
C782        O952   1.274       .  A
O785        C795   1.279       .  A
O785       Cu793   2.013       .  S
O786        C796   1.278   1_565  A
O786      Cu1153   2.017       .  S
O787        C797   1.280       .  A
O787       Cu793   2.027       .  S
O788        C798   1.281       .  A
O788       Cu793   2.026       .  S
O789       C1158   1.274       .  A
O789       Cu794   1.966       .  S
O790       C1157   1.273       .  A
O790       Cu794   1.952   1_565  S
O791        C796   1.281       .  A
O791       Cu794   2.033       .  S
O792        C795   1.281       .  A
O792      Cu1154   2.042       .  S
Cu793      O1146   2.017       .  S
Cu793     Cu1154   2.370       .  S
Cu794      O1152   2.042   1_545  S
Cu794     Cu1153   2.370   1_545  S
C797        C845   1.468       .  S
C797       O1150   1.273       .  A
C798        C852   1.473       .  S
C798       O1149   1.274       .  A
O799       Cu807   1.973       .  S
O800       Cu807   1.998       .  S
O801        C811   1.281       .  A
O802        C812   1.282       .  A
O802       Cu807   2.041       .  S
O803        C812   1.281       .  A
O804        C811   1.279       .  A
O804       Cu808   2.023   1_655  S
O805        C810   1.279       .  A
O805       Cu808   1.973       .  S
O806        C809   1.272       .  A
O806       Cu808   2.000   1_655  S
C809        C882   1.462       .  S
C810        C895   1.461       .  S
O813        C823   1.281       .  A
O813      Cu1181   2.042       .  S
O814        C824   1.282       .  A
O814       Cu821   2.041       .  S
O815        C825   1.273       .  A
O815       Cu821   2.005       .  S
O816        C826   1.280       .  A
O816       Cu821   1.975   1_565  S
O817       C1186   1.271       .  A
O817       Cu822   1.992       .  S
O818       C1185   1.278       .  A
O818       Cu822   1.969       .  S
O819        C824   1.281       .  A
O819      Cu1182   2.026       .  S
O820        C823   1.279       .  A
O820       Cu822   2.024       .  S
Cu821      O1173   2.042   1_545  S
Cu821     Cu1182   2.368       .  S
Cu822      O1179   2.026       .  S
Cu822     Cu1181   2.368       .  S
C825        C855   1.461       .  S
C825       O1178   1.278       .  A
C826        C842   1.462       .  S
C826       O1177   1.271       .  A
O827        C837   1.279       .  A
O827       Cu835   2.026       .  S
O828        C838   1.281       .  A
O828      Cu1015   2.027       .  S
O829        C839   1.270       .  A
O829       Cu835   1.992       .  S
O830        C840   1.278       .  A
O830       Cu835   1.965       .  S
O831       C1020   1.273       .  A
O831       Cu836   2.005       .  S
O832       C1019   1.280       .  A
O832       Cu836   1.978   1_556  S
O833        C838   1.282       .  A
O833       Cu836   2.044       .  S
O834        C837   1.281       .  A
O834      Cu1016   2.044       .  S
Cu835      O1008   2.027       .  S
Cu835     Cu1016   2.367       .  S
Cu836      O1014   2.044   1_554  S
Cu836     Cu1015   2.367       .  S
C839        C865   1.464       .  S
C839       O1012   1.280       .  A
C840        C875   1.462       .  S
C840       O1011   1.273       .  A
C841       C1202   1.410       .  A
C841       C1026   1.405       .  A
C841        H847   1.083       .  S
C842       C1201   1.410       .  A
C842        C843   1.397       .  A
C843       C1024   1.396       .  A
C843        H848   1.083       .  S
C844       C1023   1.396   1_554  A
C844       C1205   1.412       .  A
C844        H849   1.084       .  S
C845       C1204   1.412       .  A
C845        C846   1.400   1_554  A
C846       C1021   1.405       .  A
C846        H850   1.082   1_556  S
C851       C1212   1.411       .  A
C851        C856   1.396       .  A
C851        H857   1.083       .  S
C852       C1211   1.411       .  A
C852        C853   1.404       .  A
C853        C854   1.402       .  A
C853        H858   1.083       .  S
C854       C1215   1.407       .  A
C854        H859   1.084       .  S
C855       C1214   1.407       .  A
C855        C856   1.399       .  A
C856        H860   1.083       .  S
C861        C862   1.412       .  A
C861        H867   1.084       .  S
C862       C1043   1.401       .  A
C863       C1042   1.401       .  A
C863        H868   1.081       .  S
C864       C1045   1.410       .  A
C864        H869   1.084       .  S
C865       C1044   1.410       .  A
C865        C866   1.398       .  A
C866        H870   1.083       .  S
C871       C1052   1.411       .  A
C871        C876   1.399       .  A
C871        H877   1.083       .  S
C872       C1051   1.411       .  A
C872        C873   1.406       .  A
C873        C874   1.403       .  A
C873        H878   1.083       .  S
C874        C875   1.406       .  A
C874        H879   1.083       .  S
C875       C1056   1.401       .  A
C876       C1055   1.401       .  A
C876        H880   1.083       .  S
C881        C882   1.410       .  A
C881       C1246   1.405       .  A
C881        H887   1.082       .  S
C883       C1244   1.395       .  A
C883        H888   1.083       .  S
C884       C1243   1.395   1_545  A
C884        H889   1.083       .  S
C885        C886   1.400   1_545  A
C886       C1241   1.405       .  A
C886        H890   1.082   1_565  S
C891        C892   1.411       .  A
C891        C896   1.397       .  A
C891        H897   1.083       .  S
C893        C894   1.402       .  A
C893        H898   1.083       .  S
C894        H899   1.084       .  S
C895        C896   1.400       .  A
C896        H900   1.083       .  S
C901        C902   1.409       .  A
C901        C906   1.409       .  A
C901        C948   1.490       .  S
C902        C903   1.416       .  A
C902        H907   1.079       .  S
C903        C904   1.411       .  A
C903       C1017   1.486       .  S
C904        C905   1.409       .  A
C904        H908   1.083       .  S
C905        C906   1.406       .  A
C905       C1004   1.499       .  S
C906        H909   1.083       .  S
C910        C911   1.414       .  A
C910        C915   1.412       .  A
C910        C991   1.484       .  S
C911        C912   1.407       .  A
C911        H916   1.080       .  S
C912        C913   1.410       .  A
C912        C975   1.489       .  S
C913        C914   1.408       .  A
C913        H917   1.083       .  S
C914        C915   1.410       .  A
C914       C1018   1.501       .  S
C915        H918   1.083       .  S
C919        C920   1.416       .  A
C919        C924   1.410       .  A
C919       C1003   1.485       .  S
C920        C921   1.410       .  A
C920        H925   1.080       .  S
C921        C922   1.410       .  A
C921        C964   1.492       .  S
C922        C923   1.407       .  A
C922        H926   1.083       .  S
C923        C924   1.407       .  A
C923        C992   1.498       .  S
C924        H927   1.083       .  S
C928        C929   1.410       .  A
C928        C933   1.406       .  A
C928        C976   1.485       .  S
C929        C930   1.405       .  A
C929        H934   1.084       .  S
C930        C931   1.414       .  A
C930        C947   1.487       .  S
C931        C932   1.409       .  A
C931        H935   1.084       .  S
C932        C933   1.412       .  A
C932        C963   1.489       .  S
C933        H936   1.084       .  S
O937        C947   1.278       .  A
O938        C948   1.280       .  A
O938       Cu945   2.017       .  S
O939        C949   1.281   1_655  A
O939       Cu945   2.023       .  S
O940        C950   1.280       .  A
O940       Cu945   2.032       .  S
O941       Cu946   1.954       .  S
O942       Cu946   1.963       .  S
O943        C948   1.281       .  A
O944        C947   1.282       .  A
O944       Cu946   2.033       .  S
C949       C1072   1.472       .  S
C950       C1065   1.469       .  S
O951       Cu959   1.973       .  S
O952       Cu959   1.959       .  S
O953        C963   1.282       .  A
O953       Cu959   2.037       .  S
O954        C964   1.282       .  A
O955        C964   1.280       .  A
O955       Cu960   2.018       .  S
O956        C963   1.279       .  A
O957        C962   1.279       .  A
O957       Cu960   2.025       .  S
O958        C961   1.280   1_556  A
O958       Cu960   2.020       .  S
C961       C1052   1.474       .  S
C962       C1042   1.468       .  S
O965        C975   1.279       .  A
O965       Cu973   2.013       .  S
O966        C976   1.278   1_565  A
O966      Cu1333   2.017       .  S
O967        C977   1.280       .  A
O967       Cu973   2.027       .  S
O968        C978   1.281       .  A
O968       Cu973   2.026       .  S
O969       C1338   1.274       .  A
O969       Cu974   1.966       .  S
O970       C1337   1.273       .  A
O970       Cu974   1.952   1_565  S
O971        C976   1.281       .  A
O971       Cu974   2.033       .  S
O972        C975   1.281       .  A
O972      Cu1334   2.042       .  S
Cu973      O1326   2.017       .  S
Cu973     Cu1334   2.370       .  S
Cu974      O1332   2.042   1_545  S
Cu974     Cu1333   2.370   1_545  S
C977       C1025   1.468       .  S
C977       O1330   1.273       .  A
C978       C1032   1.473       .  S
C978       O1329   1.274       .  A
O979       Cu987   1.973       .  S
O980       Cu987   1.998       .  S
O981        C991   1.281       .  A
O982        C992   1.282       .  A
O982       Cu987   2.041       .  S
O983        C992   1.281       .  A
O984        C991   1.279       .  A
O984       Cu988   2.023   1_655  S
O985        C990   1.279       .  A
O985       Cu988   1.973       .  S
O986        C989   1.272       .  A
O986       Cu988   2.000   1_655  S
C989       C1062   1.462       .  S
C990       C1075   1.461       .  S
O993       C1003   1.281       .  A
O993      Cu1361   2.042       .  S
O994       C1004   1.282       .  A
O994      Cu1001   2.041       .  S
O995       C1005   1.273       .  A
O995      Cu1001   2.005       .  S
O996       C1006   1.280       .  A
O996      Cu1001   1.975   1_565  S
O997       C1366   1.271       .  A
O997      Cu1002   1.992       .  S
O998       C1365   1.278       .  A
O998      Cu1002   1.969       .  S
O999       C1004   1.281       .  A
O999      Cu1362   2.026       .  S
O1000      C1003   1.279       .  A
O1000     Cu1002   2.024       .  S
Cu1001     O1353   2.042   1_545  S
Cu1001    Cu1362   2.368       .  S
Cu1002     O1359   2.026       .  S
Cu1002    Cu1361   2.368       .  S
C1005      C1035   1.461       .  S
C1005      O1358   1.278       .  A
C1006      C1022   1.462       .  S
C1006      O1357   1.271       .  A
O1007      C1017   1.279       .  A
O1007     Cu1015   2.026   1_556  S
O1008      C1018   1.281       .  A
O1009      C1019   1.270       .  A
O1009     Cu1015   1.992   1_556  S
O1010      C1020   1.278       .  A
O1010     Cu1015   1.965       .  S
O1011     Cu1016   2.005       .  S
O1012     Cu1016   1.978       .  S
O1013      C1018   1.282       .  A
O1013     Cu1016   2.044       .  S
O1014      C1017   1.281       .  A
C1019      C1045   1.464       .  S
C1020      C1055   1.462       .  S
C1021      C1382   1.410       .  A
C1021      H1027   1.083       .  S
C1022      C1381   1.410       .  A
C1022      C1023   1.397       .  A
C1023      H1028   1.083       .  S
C1024      C1385   1.412       .  A
C1024      H1029   1.084       .  S
C1025      C1384   1.412       .  A
C1025      C1026   1.400       .  A
C1026      H1030   1.082       .  S
C1031      C1392   1.411       .  A
C1031      C1036   1.396       .  A
C1031      H1037   1.083       .  S
C1032      C1391   1.411       .  A
C1032      C1033   1.404       .  A
C1033      C1034   1.402       .  A
C1033      H1038   1.083       .  S
C1034      C1395   1.407       .  A
C1034      H1039   1.084       .  S
C1035      C1394   1.407       .  A
C1035      C1036   1.399       .  A
C1036      H1040   1.083       .  S
C1041      C1042   1.412       .  A
C1041      H1047   1.084       .  S
C1043      H1048   1.081       .  S
C1044      H1049   1.084       .  S
C1045      C1046   1.398       .  A
C1046      H1050   1.083       .  S
C1051      C1056   1.399       .  A
C1051      H1057   1.083       .  S
C1052      C1053   1.406       .  A
C1053      C1054   1.403       .  A
C1053      H1058   1.083   1_554  S
C1054      C1055   1.406       .  A
C1054      H1059   1.083       .  S
C1056      H1060   1.083       .  S
C1061      C1062   1.410       .  A
C1061      C1426   1.405       .  A
C1061      H1067   1.082       .  S
C1063      C1424   1.395       .  A
C1063      H1068   1.083       .  S
C1064      C1423   1.395   1_545  A
C1064      H1069   1.083       .  S
C1065      C1066   1.400   1_545  A
C1066      C1421   1.405       .  A
C1066      H1070   1.082   1_565  S
C1071      C1072   1.411       .  A
C1071      C1076   1.397       .  A
C1071      H1077   1.083       .  S
C1073      C1074   1.402       .  A
C1073      H1078   1.083       .  S
C1074      H1079   1.084       .  S
C1075      C1076   1.400       .  A
C1076      H1080   1.083       .  S
C1081      C1082   1.409       .  A
C1081      C1086   1.409       .  A
C1081      C1128   1.490       .  S
C1082      C1083   1.416       .  A
C1082      H1087   1.079       .  S
C1083      C1084   1.411       .  A
C1083      C1197   1.486       .  S
C1084      C1085   1.409       .  A
C1084      H1088   1.083       .  S
C1085      C1086   1.406       .  A
C1085      C1184   1.499       .  S
C1086      H1089   1.083       .  S
C1090      C1091   1.414       .  A
C1090      C1095   1.412       .  A
C1090      C1171   1.484       .  S
C1091      C1092   1.407       .  A
C1091      H1096   1.080       .  S
C1092      C1093   1.410       .  A
C1092      C1155   1.489       .  S
C1093      C1094   1.408       .  A
C1093      H1097   1.083       .  S
C1094      C1095   1.410       .  A
C1094      C1198   1.501       .  S
C1095      H1098   1.083       .  S
C1099      C1100   1.416       .  A
C1099      C1104   1.410       .  A
C1099      C1183   1.485       .  S
C1100      C1101   1.410       .  A
C1100      H1105   1.080       .  S
C1101      C1102   1.410       .  A
C1101      C1144   1.492       .  S
C1102      C1103   1.407       .  A
C1102      H1106   1.083       .  S
C1103      C1104   1.407       .  A
C1103      C1172   1.498       .  S
C1104      H1107   1.083       .  S
C1108      C1109   1.410       .  A
C1108      C1113   1.406       .  A
C1108      C1156   1.485       .  S
C1109      C1110   1.405       .  A
C1109      H1114   1.084       .  S
C1110      C1111   1.414       .  A
C1110      C1127   1.487       .  S
C1111      C1112   1.409       .  A
C1111      H1115   1.084       .  S
C1112      C1113   1.412       .  A
C1112      C1143   1.489       .  S
C1113      H1116   1.084       .  S
O1117      C1127   1.278       .  A
O1118      C1128   1.280       .  A
O1118     Cu1125   2.017       .  S
O1119      C1129   1.281   1_655  A
O1119     Cu1125   2.023       .  S
O1120      C1130   1.280       .  A
O1120     Cu1125   2.032       .  S
O1121     Cu1126   1.954       .  S
O1122     Cu1126   1.963       .  S
O1123      C1128   1.281       .  A
O1124      C1127   1.282       .  A
O1124     Cu1126   2.033       .  S
C1129      C1252   1.472       .  S
C1130      C1245   1.469       .  S
O1131      C1321   1.274       .  A
O1131     Cu1139   1.973       .  S
O1132      C1322   1.274       .  A
O1132     Cu1139   1.959   1_556  S
O1133      C1143   1.282       .  A
O1133     Cu1139   2.037       .  S
O1134      C1144   1.282       .  A
O1134     Cu1319   2.046       .  S
O1135      C1144   1.280       .  A
O1135     Cu1140   2.018       .  S
O1136      C1143   1.279   1_556  A
O1136     Cu1320   2.019       .  S
O1137      C1142   1.279       .  A
O1137     Cu1140   2.024       .  S
O1138      C1141   1.280       .  A
O1138     Cu1140   2.020       .  S
Cu1139     O1314   2.046   1_554  S
Cu1139    Cu1320   2.370   1_554  S
Cu1140     O1316   2.019       .  S
Cu1140    Cu1319   2.370       .  S
C1141      C1232   1.474       .  S
C1141      O1311   1.274       .  A
C1142      C1222   1.468       .  S
C1142      O1312   1.274       .  A
O1145      C1155   1.279       .  A
O1145     Cu1153   2.013       .  S
O1146      C1156   1.278       .  A
O1147      C1157   1.280       .  A
O1147     Cu1153   2.027       .  S
O1148      C1158   1.281   1_565  A
O1148     Cu1153   2.026       .  S
O1149     Cu1154   1.966       .  S
O1150     Cu1154   1.952       .  S
O1151      C1156   1.281       .  A
O1151     Cu1154   2.033       .  S
O1152      C1155   1.281       .  A
C1157      C1205   1.468       .  S
C1158      C1212   1.473       .  S
O1159     Cu1167   1.973       .  S
O1160     Cu1167   1.998       .  S
O1161      C1171   1.281       .  A
O1162      C1172   1.282       .  A
O1162     Cu1167   2.041       .  S
O1163      C1172   1.281       .  A
O1164      C1171   1.279       .  A
O1164     Cu1168   2.023   1_655  S
O1165      C1170   1.279       .  A
O1165     Cu1168   1.973       .  S
O1166      C1169   1.272       .  A
O1166     Cu1168   2.000   1_655  S
C1169      C1242   1.462       .  S
C1170      C1255   1.461       .  S
O1173      C1183   1.281       .  A
O1174      C1184   1.282       .  A
O1174     Cu1181   2.041       .  S
O1175      C1185   1.273       .  A
O1175     Cu1181   2.005       .  S
O1176      C1186   1.280       .  A
O1176     Cu1181   1.975       .  S
O1177     Cu1182   1.992   1_565  S
O1178     Cu1182   1.969       .  S
O1179      C1184   1.281       .  A
O1180      C1183   1.279       .  A
O1180     Cu1182   2.024   1_565  S
C1185      C1215   1.461       .  S
C1186      C1202   1.462       .  S
O1187      C1197   1.279       .  A
O1187     Cu1195   2.026       .  S
O1188      C1198   1.281       .  A
O1188     Cu1375   2.027       .  S
O1189      C1199   1.270       .  A
O1189     Cu1195   1.992       .  S
O1190      C1200   1.278       .  A
O1190     Cu1195   1.965       .  S
O1191      C1380   1.273       .  A
O1191     Cu1196   2.005       .  S
O1192      C1379   1.280       .  A
O1192     Cu1196   1.978   1_556  S
O1193      C1198   1.282       .  A
O1193     Cu1196   2.044       .  S
O1194      C1197   1.281       .  A
O1194     Cu1376   2.044       .  S
Cu1195     O1368   2.027       .  S
Cu1195    Cu1376   2.367       .  S
Cu1196     O1374   2.044   1_554  S
Cu1196    Cu1375   2.367       .  S
C1199      C1225   1.464       .  S
C1199      O1372   1.280       .  A
C1200      C1235   1.462       .  S
C1200      O1371   1.273       .  A
C1201      C1386   1.405       .  A
C1201      H1207   1.083       .  S
C1202      C1203   1.397       .  A
C1203      C1384   1.396       .  A
C1203      H1208   1.083       .  S
C1204      C1383   1.396   1_554  A
C1204      H1209   1.084       .  S
C1205      C1206   1.400   1_554  A
C1206      C1381   1.405       .  A
C1206      H1210   1.082   1_556  S
C1211      C1216   1.396       .  A
C1211      H1217   1.083       .  S
C1212      C1213   1.404       .  A
C1213      C1214   1.402       .  A
C1213      H1218   1.083   1_545  S
C1214      H1219   1.084       .  S
C1215      C1216   1.399       .  A
C1216      H1220   1.083       .  S
C1221      C1222   1.412       .  A
C1221      H1227   1.084       .  S
C1222      C1403   1.401       .  A
C1223      C1402   1.401       .  A
C1223      H1228   1.081       .  S
C1224      C1405   1.410       .  A
C1224      H1229   1.084       .  S
C1225      C1404   1.410       .  A
C1225      C1226   1.398       .  A
C1226      H1230   1.083       .  S
C1231      C1412   1.411       .  A
C1231      C1236   1.399       .  A
C1231      H1237   1.083       .  S
C1232      C1411   1.411       .  A
C1232      C1233   1.406       .  A
C1233      C1234   1.403       .  A
C1233      H1238   1.083       .  S
C1234      C1235   1.406       .  A
C1234      H1239   1.083       .  S
C1235      C1416   1.401       .  A
C1236      C1415   1.401       .  A
C1236      H1240   1.083       .  S
C1241      C1242   1.410       .  A
C1241      H1247   1.082       .  S
C1243      H1248   1.083       .  S
C1244      H1249   1.083       .  S
C1245      C1246   1.400       .  A
C1246      H1250   1.082       .  S
C1251      C1252   1.411       .  A
C1251      C1256   1.397       .  A
C1251      H1257   1.083       .  S
C1253      C1254   1.402       .  A
C1253      H1258   1.083       .  S
C1254      H1259   1.084       .  S
C1255      C1256   1.400       .  A
C1256      H1260   1.083       .  S
C1261      C1262   1.409       .  A
C1261      C1266   1.409       .  A
C1261      C1308   1.490       .  S
C1262      C1263   1.416       .  A
C1262      H1267   1.079       .  S
C1263      C1264   1.411       .  A
C1263      C1377   1.486       .  S
C1264      C1265   1.409       .  A
C1264      H1268   1.083       .  S
C1265      C1266   1.406       .  A
C1265      C1364   1.499       .  S
C1266      H1269   1.083       .  S
C1270      C1271   1.414       .  A
C1270      C1275   1.412       .  A
C1270      C1351   1.484       .  S
C1271      C1272   1.407       .  A
C1271      H1276   1.080       .  S
C1272      C1273   1.410       .  A
C1272      C1335   1.489       .  S
C1273      C1274   1.408       .  A
C1273      H1277   1.083       .  S
C1274      C1275   1.410       .  A
C1274      C1378   1.501       .  S
C1275      H1278   1.083       .  S
C1279      C1280   1.416       .  A
C1279      C1284   1.410       .  A
C1279      C1363   1.485       .  S
C1280      C1281   1.410       .  A
C1280      H1285   1.080       .  S
C1281      C1282   1.410       .  A
C1281      C1324   1.492       .  S
C1282      C1283   1.407       .  A
C1282      H1286   1.083       .  S
C1283      C1284   1.407       .  A
C1283      C1352   1.498       .  S
C1284      H1287   1.083       .  S
C1288      C1289   1.410       .  A
C1288      C1293   1.406       .  A
C1288      C1336   1.485       .  S
C1289      C1290   1.405       .  A
C1289      H1294   1.084       .  S
C1290      C1291   1.414       .  A
C1290      C1307   1.487       .  S
C1291      C1292   1.409       .  A
C1291      H1295   1.084       .  S
C1292      C1293   1.412       .  A
C1292      C1323   1.489       .  S
C1293      H1296   1.084       .  S
O1297      C1307   1.278       .  A
O1298      C1308   1.280       .  A
O1298     Cu1305   2.017       .  S
O1299      C1309   1.281   1_655  A
O1299     Cu1305   2.023       .  S
O1300      C1310   1.280       .  A
O1300     Cu1305   2.032       .  S
O1301     Cu1306   1.954       .  S
O1302     Cu1306   1.963       .  S
O1303      C1308   1.281       .  A
O1304      C1307   1.282       .  A
O1304     Cu1306   2.033       .  S
C1309      C1432   1.472       .  S
C1310      C1425   1.469       .  S
O1311     Cu1319   1.973       .  S
O1312     Cu1319   1.959       .  S
O1313      C1323   1.282       .  A
O1313     Cu1319   2.037       .  S
O1314      C1324   1.282       .  A
O1315      C1324   1.280       .  A
O1315     Cu1320   2.018       .  S
O1316      C1323   1.279       .  A
O1317      C1322   1.279       .  A
O1317     Cu1320   2.024       .  S
O1318      C1321   1.280   1_556  A
O1318     Cu1320   2.020       .  S
C1321      C1412   1.474       .  S
C1322      C1402   1.468       .  S
O1325      C1335   1.279       .  A
O1325     Cu1333   2.013       .  S
O1326      C1336   1.278       .  A
O1327      C1337   1.280       .  A
O1327     Cu1333   2.027       .  S
O1328      C1338   1.281   1_565  A
O1328     Cu1333   2.026       .  S
O1329     Cu1334   1.966       .  S
O1330     Cu1334   1.952       .  S
O1331      C1336   1.281       .  A
O1331     Cu1334   2.033       .  S
O1332      C1335   1.281       .  A
C1337      C1385   1.468       .  S
C1338      C1392   1.473       .  S
O1339     Cu1347   1.973       .  S
O1340     Cu1347   1.998       .  S
O1341      C1351   1.281       .  A
O1342      C1352   1.282       .  A
O1342     Cu1347   2.041       .  S
O1343      C1352   1.281       .  A
O1344      C1351   1.279       .  A
O1344     Cu1348   2.023   1_655  S
O1345      C1350   1.279       .  A
O1345     Cu1348   1.973       .  S
O1346      C1349   1.272       .  A
O1346     Cu1348   2.000   1_655  S
C1349      C1422   1.462       .  S
C1350      C1435   1.461       .  S
O1353      C1363   1.281       .  A
O1354      C1364   1.282       .  A
O1354     Cu1361   2.041       .  S
O1355      C1365   1.273       .  A
O1355     Cu1361   2.005       .  S
O1356      C1366   1.280       .  A
O1356     Cu1361   1.975       .  S
O1357     Cu1362   1.992   1_565  S
O1358     Cu1362   1.969       .  S
O1359      C1364   1.281       .  A
O1360      C1363   1.279       .  A
O1360     Cu1362   2.024   1_565  S
C1365      C1395   1.461       .  S
C1366      C1382   1.462       .  S
O1367      C1377   1.279       .  A
O1367     Cu1375   2.026   1_556  S
O1368      C1378   1.281       .  A
O1369      C1379   1.270       .  A
O1369     Cu1375   1.992   1_556  S
O1370      C1380   1.278       .  A
O1370     Cu1375   1.965       .  S
O1371     Cu1376   2.005       .  S
O1372     Cu1376   1.978       .  S
O1373      C1378   1.282       .  A
O1373     Cu1376   2.044       .  S
O1374      C1377   1.281       .  A
C1379      C1405   1.464       .  S
C1380      C1415   1.462       .  S
C1381      H1387   1.083       .  S
C1382      C1383   1.397       .  A
C1383      H1388   1.083       .  S
C1384      H1389   1.084       .  S
C1385      C1386   1.400       .  A
C1386      H1390   1.082       .  S
C1391      C1396   1.396       .  A
C1391      H1397   1.083       .  S
C1392      C1393   1.404       .  A
C1393      C1394   1.402       .  A
C1393      H1398   1.083   1_545  S
C1394      H1399   1.084       .  S
C1395      C1396   1.399       .  A
C1396      H1400   1.083       .  S
C1401      C1402   1.412       .  A
C1401      H1407   1.084       .  S
C1403      H1408   1.081       .  S
C1404      H1409   1.084       .  S
C1405      C1406   1.398       .  A
C1406      H1410   1.083       .  S
C1411      C1416   1.399       .  A
C1411      H1417   1.083       .  S
C1412      C1413   1.406       .  A
C1413      C1414   1.403       .  A
C1413      H1418   1.083   1_554  S
C1414      C1415   1.406       .  A
C1414      H1419   1.083       .  S
C1416      H1420   1.083       .  S
C1421      C1422   1.410       .  A
C1421      H1427   1.082       .  S
C1423      H1428   1.083       .  S
C1424      H1429   1.083       .  S
C1425      C1426   1.400       .  A
C1426      H1430   1.083       .  S
C1431      C1432   1.411       .  A
C1431      C1436   1.397       .  A
C1431      H1437   1.083       .  S
C1433      C1434   1.402       .  A
C1433      H1438   1.083       .  S
C1434      H1439   1.084       .  S
C1435      C1436   1.400       .  A
C1436      H1440   1.083       .  S
