geometry optimzed in LAMMPS
_audit_creation_date              2020-11-30 
_audit_creation_method            'lammps2cif' 
_symmetry_space_group_name_H-M    'P1' 
_symmetry_Int_Tables_number       1 
_symmetry_cell_setting            triclinic 
loop_ 
_symmetry_equiv_pos_as_xyz 
  x,y,z 
_cell_length_a                    34.46086997 
_cell_length_b                    34.39962982809188 
_cell_length_c                    27.911553486840614 
_cell_angle_alpha                 90.33683405733433 
_cell_angle_beta                  89.95996555202568 
_cell_angle_gamma                 120.01694181022235 
loop_ 
_atom_site_label 
_atom_site_type_symbol 
_atom_site_fract_x 
_atom_site_fract_y 
_atom_site_fract_z 
_atom_site_charge 
O1          O  0.54884187  0.60517399  0.44019680    -0.86800
O2          O  0.58129021  0.64964713  0.35541133    -0.83900
C3          C  0.54870325  0.62230694  0.33027426     0.96600
O4          O  0.51095466  0.61884658  0.33694300    -0.83900
O5          O  0.44140776  0.62512398  0.38012711    -0.86600
C6          C  0.42137643  0.60508515  0.41813565     1.01100
O7          O  0.44222821  0.61294417  0.45730168    -0.79300
O8          O  0.51420461  0.61601693  0.50132286    -0.79500
C9          C  0.52482771  0.59106492  0.47716325     1.01100
O10         O  0.59721001  0.68594560  0.49117295    -0.86800
O11         O  0.61106466  0.73074518  0.40544173    -0.83900
C12         C  0.60203409  0.74320107  0.36665063     0.96600
O13         O  0.56686085  0.71731102  0.34249702    -0.83900
O14         O  0.49661222  0.72014893  0.38383938    -0.86500
C15         C  0.48249920  0.72798541  0.42229992     1.01100
O16         O  0.48152316  0.70812665  0.46085849    -0.79400
O17         O  0.55549285  0.71465669  0.50828377    -0.79500
C18         C  0.59018720  0.71224319  0.51613359     1.01100
Cr19       Cr  0.58010503  0.66789211  0.42305502     1.93700
Cr20       Cr  0.50586606  0.66984232  0.36548511     1.93200
Cr21       Cr  0.50099698  0.66354567  0.47743644     1.39100
O22         O  0.52810793  0.66717217  0.42202270    -1.24600
O23         O  0.72019200  0.61993020  0.10016164    -0.86800
O24         O  0.67229550  0.60529463  0.01663125    -0.83900
C25         C  0.69932466  0.59977731  0.99140308     0.96600
O26         O  0.70244062  0.56529004  0.99804360    -0.83900
O27         O  0.69879477  0.49189079  0.04314155    -0.86600
C28         C  0.71895464  0.49210572  0.08124276     1.01100
O29         O  0.71137293  0.50521590  0.12046998    -0.79300
O30         O  0.71180643  0.57661604  0.16236347    -0.79500
C31         C  0.73590433  0.61115419  0.13667022     1.01100
O32         O  0.64157882  0.59028111  0.15364610    -0.86800
O33         O  0.59376184  0.55612920  0.06976899    -0.83900
C34         C  0.57892727  0.53227769  0.03241568     0.96600
O35         O  0.60319943  0.52136796  0.00743742    -0.83900
O36         O  0.60422394  0.45061568  0.04937582    -0.86500
C37         C  0.59706405  0.42992765  0.08840793     1.01100
O38         O  0.61678869  0.45031857  0.12672951    -0.79400
O39         O  0.61259097  0.52024091  0.17212030    -0.79500
C40         C  0.61541589  0.55771314  0.17914265     1.01100
Cr41       Cr  0.65697128  0.58835722  0.08512065     1.93700
Cr42       Cr  0.65279910  0.50997262  0.02900093     1.93200
Cr43       Cr  0.66234956  0.51506433  0.14094848     1.39100
O44         O  0.65728242  0.53677841  0.08504577    -1.24600
O45         O  0.75873023  0.72307830  0.70268146    -0.86800
O46         O  0.76290223  0.72037783  0.79931953    -0.83900
C47         C  0.77466020  0.73347199  0.84168924     0.96600
O48         O  0.79284198  0.77490154  0.85133364    -0.83900
O49         O  0.87263238  0.82480657  0.79512309    -0.86600
C50         C  0.89667232  0.84607824  0.75938713     1.01100
O51         O  0.87998159  0.85776421  0.72590772    -0.79300
O52         O  0.82659988  0.77758704  0.68424240    -0.79500
C53         C  0.79754368  0.73651318  0.68594348     1.01100
O54         O  0.70862934  0.77003910  0.71102613    -0.86800
O55         O  0.71431042  0.76888047  0.80814705    -0.83900
C56         C  0.72635917  0.80859857  0.82160764     0.96600
O57         O  0.76718072  0.83838778  0.82353493    -0.83900
O58         O  0.84707679  0.89161392  0.78234214    -0.86500
C59         C  0.83471396  0.90734332  0.74853279     1.01100
O60         O  0.81238984  0.88220564  0.71374389    -0.79400
O61         O  0.76235626  0.80220461  0.65886576    -0.79500
C62         C  0.72115081  0.78299680  0.66888153     1.01100
Cr63       Cr  0.74043964  0.75000103  0.75523994     1.93700
Cr64       Cr  0.81800347  0.82969210  0.80911495     1.93200
Cr65       Cr  0.81774489  0.82797198  0.69990135     1.39100
O66         O  0.79172502  0.80212702  0.75468314    -1.24600
O67         O  0.26674327  0.44110022  0.84458889    -0.86800
O68         O  0.29210947  0.52123350  0.88579106    -0.83900
C69         C  0.26284390  0.50825947  0.91838774     0.96600
O70         O  0.26563312  0.48717267  0.95416533    -0.83900
O71         O  0.29445365  0.43773212  0.01070696    -0.86600
C72         C  0.27268402  0.39634143  0.00096017     1.01100
O73         O  0.27378960  0.38308983  0.95918613    -0.79300
O74         O  0.28115444  0.38710371  0.86240324    -0.79500
C75         C  0.25542065  0.40015098  0.84585261     1.01100
O76         O  0.35516010  0.46675100  0.81943508    -0.86800
O77         O  0.38443893  0.54585134  0.87532150    -0.83900
C78         C  0.38739585  0.57040190  0.91077648     0.96600
O79         O  0.35846691  0.55482572  0.94380072    -0.83900
O80         O  0.38391595  0.50124306  0.98653455    -0.86500
C81         C  0.39606711  0.47225329  0.98451525     1.01100
O82         O  0.37068682  0.43318667  0.96793684    -0.79400
O83         O  0.37796458  0.43551515  0.87120347    -0.79500
C84         C  0.37755652  0.44797194  0.82906977     1.01100
Cr85       Cr  0.32527658  0.49183933  0.86056351     1.93700
Cr86       Cr  0.32499236  0.49259792  0.96962626     1.93200
Cr87       Cr  0.32585846  0.41416861  0.91523514     1.39100
O88         O  0.32535319  0.46574434  0.91519884    -1.24600
O89         O  0.41885635  0.28186002  0.66209739    -0.86800
O90         O  0.48942663  0.28082259  0.61981182    -0.83900
C91         C  0.50043562  0.27081873  0.58061229     0.96600
O92         O  0.49895698  0.28895898  0.54174197    -0.83900
O93         O  0.42461569  0.28314975  0.49749163    -0.86600
C94         C  0.39059628  0.28664562  0.48977011     1.01100
O95         O  0.38439862  0.31331636  0.51499986    -0.79300
O96         O  0.37326516  0.26869988  0.60033494    -0.79500
C97         C  0.38342347  0.25597248  0.63821015     1.01100
O98         O  0.47378969  0.38076231  0.66739965    -0.86800
O99         O  0.54254719  0.37620783  0.62183316    -0.83900
C100        C  0.56140923  0.39427467  0.58265192     0.96600
O101        O  0.53984194  0.38402137  0.54386802    -0.83900
O102        O  0.46734621  0.38231346  0.50336786    -0.86500
C103        C  0.45744811  0.40759425  0.52806078     1.01100
O104        O  0.43420737  0.39386842  0.56563919    -0.79400
O105        O  0.40307539  0.34901710  0.65102229    -0.79500
C106        C  0.43603696  0.37658135  0.67554070     1.01100
Cr107      Cr  0.47909051  0.33030561  0.63826142     1.93700
Cr108      Cr  0.48023152  0.33416224  0.52615474     1.93200
Cr109      Cr  0.40322419  0.33125569  0.58293487     1.39100
O110        O  0.45518867  0.33195603  0.58243871    -1.24600
O111        O  0.18417087  0.24229800  0.32646611    -0.86800
O112        O  0.11163567  0.17232657  0.28369119    -0.83900
C113        C  0.08981885  0.15781050  0.24517571     0.96600
O114        O  0.10893638  0.15671494  0.20668995    -0.83900
O115        O  0.17568891  0.23196446  0.16081165    -0.86600
C116        C  0.21257875  0.26699823  0.15329060     1.01100
O117        O  0.24605360  0.27436539  0.17795669    -0.79300
O118        O  0.21483899  0.28700468  0.26420998    -0.79500
C119        C  0.19275096  0.27725463  0.30265571     1.01100
O120        O  0.22716450  0.18676163  0.32991033    -0.86800
O121        O  0.15197799  0.11770340  0.28547611    -0.83900
C122        C  0.15336798  0.09826520  0.24731607     0.96600
O123        O  0.16677594  0.11944526  0.20860853    -0.83900
O124        O  0.23442194  0.19240559  0.16564526    -0.86500
C125        C  0.26963619  0.20253925  0.19001489     1.01100
O126        O  0.27935798  0.22635944  0.22738354    -0.79400
O127        O  0.26652598  0.25747064  0.31310050    -0.79500
C128        C  0.26143389  0.22452363  0.33716586     1.01100
Cr129      Cr  0.17115917  0.18170810  0.30187932     1.93700
Cr130      Cr  0.17336521  0.17770601  0.18995215     1.93200
Cr131      Cr  0.24735220  0.25692388  0.24560418     1.39100
O132        O  0.19635451  0.20459161  0.24577889    -1.24600
O133        O  0.43551136  0.04514692  0.06629088    -0.86800
O134        O  0.40403033  0.05863259  0.15151732    -0.83900
C135        C  0.43700210  0.06458622  0.17617737     0.96600
O136        O  0.47454165  0.09901789  0.16901348    -0.83900
O137        O  0.54325270  0.17420616  0.12404507    -0.86600
C138        C  0.56248796  0.17334858  0.08556280     1.01100
O139        O  0.54092361  0.15891241  0.04702368    -0.79300
O140        O  0.46916637  0.08944183  0.00433563    -0.79500
C141        C  0.45892750  0.05434130  0.02887420     1.01100
O142        O  0.38652045  0.07653977  0.01598048    -0.86800
O143        O  0.37366138  0.10869657  0.10119454    -0.83900
C144        C  0.38325159  0.13199287  0.13895641     0.96600
O145        O  0.41810474  0.14132325  0.16364617    -0.83900
O146        O  0.48777093  0.21361406  0.12137035    -0.86500
C147        C  0.50190211  0.23493727  0.08277574     1.01100
O148        O  0.50255381  0.21522650  0.04442319    -0.79400
O149        O  0.42728065  0.14701966  0.99917552    -0.79500
C150        C  0.39230531  0.10983366  0.99220370     1.01100
Cr151      Cr  0.40434341  0.07664134  0.08376727     1.93700
Cr152      Cr  0.47898762  0.15445168  0.14006081     1.93200
Cr153      Cr  0.48234300  0.15068084  0.02813274     1.39100
O154        O  0.45618595  0.12815932  0.08400347    -1.24600
O155        O  0.21724957  0.93758421  0.77010060    -0.86800
O156        O  0.24762716  0.98171447  0.68520861    -0.83900
C157        C  0.21438073  0.95378256  0.66127601     0.96600
O158        O  0.17681705  0.95037921  0.66876458    -0.83900
O159        O  0.10879733  0.95771732  0.71307380    -0.86600
C160        C  0.08942361  0.93647943  0.75077414     1.01100
O161        O  0.11068971  0.94343555  0.78944615    -0.79300
O162        O  0.18290626  0.94749968  0.83217180    -0.79500
C163        C  0.19340647  0.92292606  0.80710686     1.01100
O164        O  0.26563335  0.01835299  0.82069604    -0.86800
O165        O  0.27773959  0.06271989  0.73570881    -0.83900
C166        C  0.26809561  0.07531384  0.69747944     0.96600
O167        O  0.23335535  0.04899809  0.67301475    -0.83900
O168        O  0.16443054  0.05243135  0.71592600    -0.86500
C169        C  0.14937865  0.05914941  0.75429096     1.01100
O170        O  0.14814107  0.03864673  0.79251455    -0.79400
O171        O  0.22374412  0.04680190  0.83823313    -0.79500
C172        C  0.25896003  0.04511025  0.84515843     1.01100
Cr173      Cr  0.24774513  0.00007098  0.75298530     1.93700
Cr174      Cr  0.17275651  0.00181502  0.69710436     1.93200
Cr175      Cr  0.16899635  0.99486499  0.80878711     1.39100
O176        O  0.19559850  0.99892499  0.75303694    -1.24600
O177        O  0.26167440  0.89075742  0.40165728    -0.86800
O178        O  0.30747081  0.92273934  0.48658460    -0.83900
C179        C  0.28027045  0.88959363  0.51078848     0.96600
O180        O  0.27710337  0.85208746  0.50316836    -0.98300
O181        O  0.28310350  0.78340760  0.45902994    -0.86600
C182        C  0.26245397  0.76335665  0.42109587     1.01100
O183        O  0.26995230  0.78404845  0.38203159    -0.79300
O184        O  0.27126223  0.85560727  0.33984700    -0.79500
C185        C  0.24681072  0.86635127  0.36467974     1.01100
O186        O  0.34167427  0.93979361  0.35060359    -0.86800
O187        O  0.38780430  0.95293423  0.43533008    -0.83900
C188        C  0.40150152  0.94318575  0.47279598     0.96600
O189        O  0.37566438  0.90868020  0.49752929    -0.83900
O190        O  0.37784527  0.83875687  0.45484086    -0.86500
C191        C  0.38538333  0.82501469  0.41595340     1.01100
O192        O  0.36506678  0.82418349  0.37767303    -0.79400
O193        O  0.37032233  0.89827344  0.33219758    -0.79500
C194        C  0.36817686  0.93331666  0.32559953     1.01100
Cr195      Cr  0.32465855  0.92212634  0.41851326     1.93700
Cr196      Cr  0.32784557  0.84769231  0.47414044     1.93200
Cr197      Cr  0.31983045  0.84318643  0.36235500     1.39100
O198        O  0.32408873  0.87007106  0.41824662    -1.24600
O199        O  0.55230359  0.83008578  0.84757945    -0.86800
O200        O  0.47170800  0.77677812  0.88709603    -0.83900
C201        C  0.48416785  0.76129815  0.92097864     0.96600
O202        O  0.50509326  0.78607488  0.95650153    -0.83900
O203        O  0.55443718  0.86545574  0.01166196    -0.86600
C204        C  0.59574872  0.88416571  0.00233468     1.01100
O205        O  0.60908122  0.89736462  0.96043038    -0.79300
O206        O  0.60484482  0.89962636  0.86319221    -0.79500
C207        C  0.59305602  0.85996314  0.84976935     1.01100
O208        O  0.52698898  0.89366190  0.81927207    -0.86800
O209        O  0.44681130  0.84386699  0.87332567    -0.83900
C210        C  0.42204252  0.82313430  0.90876182     0.96600
O211        O  0.43759068  0.81103255  0.94302190    -0.83900
O212        O  0.49109254  0.89088149  0.98505911    -0.86500
C213        C  0.52040246  0.93190303  0.98389950     1.01100
O214        O  0.55955237  0.94501456  0.96837407    -0.79400
O215        O  0.55609527  0.94804612  0.87159299    -0.79500
C216        C  0.54432418  0.93491508  0.82921747     1.01100
Cr217      Cr  0.50133829  0.83877228  0.86082460     1.93700
Cr218      Cr  0.49963537  0.84024257  0.96995732     1.93200
Cr219      Cr  0.57811807  0.91815004  0.91587667     1.39100
O220        O  0.52666401  0.86614073  0.91563327    -1.24600
O221        O  0.75159540  0.95037424  0.32986998    -0.86800
O222        O  0.82019138  0.94642488  0.28659937    -0.83900
C223        C  0.83308100  0.93815333  0.24754255     0.96600
O224        O  0.83419034  0.95865945  0.20949701    -0.83900
O225        O  0.75981680  0.95161428  0.16373924    -0.86600
C226        C  0.72499428  0.95389148  0.15648561     1.01100
O227        O  0.71813465  0.98012907  0.18178094    -0.79300
O228        O  0.70659515  0.93650795  0.26771036    -0.79500
C229        C  0.71681810  0.92387443  0.30563189     1.01100
O230        O  0.80758533  0.04879410  0.33435557    -0.86800
O231        O  0.87605636  0.04169080  0.28919656    -0.83900
C232        C  0.89540918  0.06161685  0.25088054     0.96600
O233        O  0.87381747  0.05389486  0.21223027    -0.83900
O234        O  0.80087725  0.05003260  0.16941052    -0.86500
C235        C  0.79038612  0.07524713  0.19318035     1.01100
O236        O  0.76729326  0.06186657  0.23092540    -0.79400
O237        O  0.73697852  0.01835321  0.31704466    -0.79500
C238        C  0.77004407  0.04571372  0.34164840     1.01100
Cr239      Cr  0.81193562  0.99742268  0.30540817     1.93700
Cr240      Cr  0.81469194  0.00306619  0.19336545     1.93200
Cr241      Cr  0.73668930  0.99922431  0.24940759     1.39100
O242        O  0.78871504  0.00003451  0.24937282    -1.24600
O243        O  0.61000802  0.09238079  0.50559320    -0.86800
O244        O  0.60710794  0.16229553  0.54799360    -0.83900
C245        C  0.59774659  0.17455377  0.58682926     0.96600
O246        O  0.61670079  0.17466446  0.62580180    -0.83900
O247        O  0.61195858  0.10116803  0.67145267    -0.86600
C248        C  0.61505394  0.06672789  0.67844838     1.01100
O249        O  0.64197794  0.06082295  0.65352778    -0.79300
O250        O  0.59723326  0.04751981  0.56750193    -0.79500
C251        C  0.58430677  0.05702437  0.52930101     1.01100
O252        O  0.70863922  0.14898116  0.50149210    -0.86800
O253        O  0.70192554  0.21769867  0.54592762    -0.83900
C254        C  0.72058161  0.23783114  0.58464810     0.96600
O255        O  0.71186459  0.21689273  0.62371622    -0.83900
O256        O  0.71066092  0.14471279  0.66564043    -0.86500
C257        C  0.73590749  0.13459628  0.64146645     1.01100
O258        O  0.72227665  0.11068823  0.60408037    -0.79400
O259        O  0.67838865  0.07839481  0.51819441    -0.79500
C260        C  0.70544988  0.11142278  0.49375105     1.01100
Cr261      Cr  0.65741912  0.15336913  0.52985911     1.93700
Cr262      Cr  0.66235950  0.15677545  0.64205597     1.93200
Cr263      Cr  0.65989080  0.07885622  0.58588308     1.39100
O264        O  0.65987200  0.13060650  0.58599708    -1.24600
O265        O  0.10128859  0.38010779  0.40091259    -0.86800
O266        O  0.06983564  0.39262741  0.48666382    -0.83900
C267        C  0.10349390  0.39876760  0.51000960     0.96600
O268        O  0.14046421  0.43372303  0.50288140    -0.83900
O269        O  0.20763057  0.50895780  0.45893254    -0.86600
C270        C  0.22700006  0.50865690  0.42040930     1.01100
O271        O  0.20554563  0.49548350  0.38151285    -0.79300
O272        O  0.13290446  0.42517532  0.33908604    -0.79500
C273        C  0.12414363  0.39020369  0.36301665     1.01100
O274        O  0.05015137  0.40996971  0.35190823    -0.86800
O275        O  0.03752420  0.44138471  0.43788077    -0.83900
C276        C  0.04716483  0.46435620  0.47592015     0.96600
O277        O  0.08267235  0.47459110  0.49977934    -0.83900
O278        O  0.15162943  0.54790329  0.45741428    -0.86500
C279        C  0.16440210  0.56916745  0.41859924     1.01100
O280        O  0.16454357  0.54970679  0.37993651    -0.79400
O281        O  0.08971744  0.48066751  0.33527625    -0.79500
C282        C  0.05536277  0.44299182  0.32802321     1.01100
Cr283      Cr  0.06908820  0.41048976  0.41932348     1.93700
Cr284      Cr  0.14355800  0.48879632  0.47531466     1.93200
Cr285      Cr  0.14573155  0.48578532  0.36340064     1.39100
O286        O  0.12035364  0.46268271  0.41933255    -1.24600
O287        O  0.94533361  0.39825496  0.06897955    -0.86800
O288        O  0.93045345  0.35148499  0.15334622    -0.83900
C289        C  0.92444843  0.37869046  0.17779277     0.96600
O290        O  0.89048353  0.38223123  0.16963737    -0.83900
O291        O  0.81665942  0.37656401  0.12379807    -0.86600
C292        C  0.81636106  0.39572298  0.08527181     1.01100
O293        O  0.82936483  0.38744434  0.04639902    -0.79300
O294        O  0.90151851  0.38834663  0.00631816    -0.79500
C295        C  0.93640270  0.41290709  0.03166724     1.01100
O296        O  0.91647071  0.31903616  0.01685878    -0.86800
O297        O  0.88160464  0.27173647  0.10071811    -0.83900
C298        C  0.85772759  0.25786876  0.13792257     0.96600
O299        O  0.84803838  0.28334743  0.16241243    -0.83900
O300        O  0.77684928  0.28173529  0.11902811    -0.86500
C301        C  0.75627122  0.27291953  0.07964949     1.01100
O302        O  0.77627540  0.29234876  0.04132155    -0.79400
O303        O  0.84663507  0.28891446  0.99712601    -0.79500
C304        C  0.88435602  0.29232176  0.99094558     1.01100
Cr305      Cr  0.91394466  0.33507558  0.08486284     1.93700
Cr306      Cr  0.83560306  0.33156276  0.13925420     1.93200
Cr307      Cr  0.84042213  0.33865885  0.02730821     1.39100
O308        O  0.86235917  0.33511847  0.08371694    -1.24600
O309        O  0.93256892  0.22693909  0.73127441    -0.86800
O310        O  0.97826588  0.25963021  0.81613754    -0.83900
C311        C  0.95142625  0.22704410  0.84116724     0.96600
O312        O  0.94825979  0.18939319  0.83441298    -0.83900
O313        O  0.95214144  0.11977831  0.78917503    -0.86600
C314        C  0.93059577  0.10018608  0.75138301     1.01100
O315        O  0.93811987  0.12087392  0.71234167    -0.79300
O316        O  0.94416548  0.19399048  0.66891993    -0.79500
C317        C  0.91896696  0.20396640  0.69331950     1.01100
O318        O  0.01303324  0.27436402  0.68046657    -0.86800
O319        O  0.05778152  0.28815437  0.76509843    -0.83900
C320        C  0.07218682  0.27880396  0.80217723     0.96600
O321        O  0.04739197  0.24423305  0.82734583    -0.83900
O322        O  0.04713606  0.17305509  0.78539801    -0.86500
C323        C  0.05316847  0.15743440  0.74704366     1.01100
O324        O  0.03258706  0.15634797  0.70894864    -0.79400
O325        O  0.04224703  0.23275218  0.66445055    -0.79500
C326        C  0.04014119  0.26765861  0.65686331     1.01100
Cr327      Cr  0.99527641  0.25785723  0.74832837     1.93700
Cr328      Cr  0.99810926  0.18353332  0.80470754     1.93200
Cr329      Cr  0.99000319  0.17857443  0.69304027     1.39100
O330        O  0.99443479  0.20573276  0.74877912    -1.24600
O331        O  0.10126597  0.60603337  0.98199453    -0.86800
O332        O  0.18057652  0.63201793  0.93898715    -0.83900
C333        C  0.16752734  0.60371050  0.90507036     0.96600
O334        O  0.14649988  0.60753416  0.86977979    -0.83900
O335        O  0.09637153  0.63789474  0.81640021    -0.86600
C336        C  0.05516499  0.61569813  0.82616766     1.01100
O337        O  0.04244597  0.61496977  0.86851244    -0.79300
O338        O  0.04729266  0.62073760  0.96542256    -0.79500
C339        C  0.06038100  0.59482415  0.98134777     1.01100
O340        O  0.12803482  0.69516296  0.00964095    -0.86800
O341        O  0.20631983  0.72458799  0.95288254    -0.83900
C342        C  0.23050027  0.72810505  0.91702370     0.96600
O343        O  0.21421078  0.70009601  0.88287611    -0.83900
O344        O  0.15981967  0.72639335  0.84350630    -0.86500
C345        C  0.13061582  0.73816262  0.84610986     1.01100
O346        O  0.09175833  0.71221387  0.86232515    -0.79400
O347        O  0.09549760  0.71787134  0.95930541    -0.79500
C348        C  0.10917039  0.71772788  0.00102880     1.01100
Cr349      Cr  0.15203597  0.66514234  0.96661482     1.93700
Cr350      Cr  0.15161417  0.66722800  0.85742162     1.93200
Cr351      Cr  0.07371572  0.66641785  0.91378299     1.39100
O352        O  0.12535334  0.66621043  0.91261250    -1.24600
O353        O  0.93309889  0.77394151  0.17452444    -0.86800
O354        O  0.95838010  0.85399549  0.21670544    -0.83900
C355        C  0.93066511  0.84248386  0.25084824     0.96600
O356        O  0.93392051  0.82110361  0.28607768    -0.83900
O357        O  0.96425221  0.77208306  0.34171707    -0.86600
C358        C  0.94217828  0.73057289  0.33276775     1.01100
O359        O  0.94185928  0.71680870  0.29087018    -0.79300
O360        O  0.94654304  0.71960184  0.19395232    -0.79500
C361        C  0.92105103  0.73282387  0.17716554     1.01100
O362        O  0.02248644  0.80109851  0.14859895    -0.86800
O363        O  0.05111368  0.88035133  0.20442242    -0.83900
C364        C  0.05391114  0.90492257  0.23985383     0.96600
O365        O  0.02585996  0.88852576  0.27357891    -0.83900
O366        O  0.05270203  0.83500451  0.31521384    -0.86500
C367        C  0.06442697  0.80565088  0.31372167     1.01100
O368        O  0.03916176  0.76680831  0.29645374    -0.79400
O369        O  0.04353215  0.76730438  0.19924808    -0.79500
C370        C  0.04424827  0.78148091  0.15761370     1.01100
Cr371      Cr  0.99193437  0.82525676  0.19042328     1.93700
Cr372      Cr  0.99352374  0.82641195  0.29969221     1.93200
Cr373      Cr  0.99280311  0.74728364  0.24511570     1.39100
O374        O  0.99280379  0.79922250  0.24502316    -1.24600
O375        O  0.84708310  0.57922220  0.65971908    -0.86800
O376        O  0.77564140  0.50953709  0.61627378    -0.83900
C377        C  0.75477540  0.49456988  0.57738105     0.96600
O378        O  0.77460342  0.49276764  0.53986716    -0.83900
O379        O  0.84367828  0.56729123  0.49438790    -0.86600
C380        C  0.88131854  0.60174877  0.48744690     1.01100
O381        O  0.91380081  0.60811910  0.51334692    -0.79300
O382        O  0.88115823  0.62298429  0.59755567    -0.79500
C383        C  0.85769055  0.61424067  0.63496117     1.01100
O384        O  0.88840904  0.52190109  0.66798870    -0.86800
O385        O  0.81403422  0.45316521  0.62261360    -0.83900
C386        C  0.81560547  0.43284247  0.58523868     0.96600
O387        O  0.83001031  0.45344781  0.54621468    -0.83900
O388        O  0.89982047  0.52554537  0.50345518    -0.86500
C389        C  0.93404062  0.53458777  0.52898015     1.01100
O390        O  0.94354015  0.55860455  0.56623360    -0.79400
O391        O  0.92940898  0.59211436  0.65012813    -0.79500
C392        C  0.92313989  0.55925809  0.67508433     1.01100
Cr393      Cr  0.83389070  0.51783403  0.63717770     1.93700
Cr394      Cr  0.83886995  0.51237788  0.52549524     1.93200
Cr395      Cr  0.91261243  0.59111053  0.58173237     1.39100
O396        O  0.86082183  0.53960163  0.58143571    -1.24600
C397        C  0.93376028  0.71181530  0.42029449    -0.14800
C398        C  0.91990921  0.69803921  0.37275552     0.07300
C399        C  0.88868577  0.65233542  0.36414173    -0.14800
C400        C  0.87319642  0.62106360  0.40191598    -0.14800
C401        C  0.88949894  0.63471209  0.44880361     0.07300
C402        C  0.91923280  0.68056842  0.45756108    -0.14800
H403        H  0.95790038  0.74652925  0.42843611     0.11300
H404        H  0.87736664  0.64052200  0.32798638     0.11300
H405        H  0.85065613  0.58590459  0.39399560     0.11300
H406        H  0.93245176  0.69210851  0.49328459     0.11300
C407        C  0.07814128  0.76576651  0.03210314    -0.14800
C408        C  0.09983230  0.74106206  0.04097100     0.07300
C409        C  0.10772464  0.73450524  0.08897981    -0.14800
C410        C  0.09188356  0.74972740  0.12696626    -0.14800
C411        C  0.06792405  0.77219649  0.11804231     0.07300
C412        C  0.06254338  0.78121110  0.07006992    -0.14800
H413        H  0.07149432  0.77157296  0.99570811     0.11300
H414        H  0.12427474  0.71563666  0.09730446     0.11300
H415        H  0.09679728  0.74221836  0.16332880     0.11300
H416        H  0.04431171  0.79839614  0.06166127     0.11300
C417        C  0.03442069  0.60861716  0.73934837    -0.14800
C418        C  0.02169021  0.59422790  0.78675495     0.07300
C419        C  0.97611203  0.56376962  0.79611368    -0.14800
C420        C  0.94392897  0.54954704  0.75918009    -0.14800
C421        C  0.95666089  0.56643834  0.71257443     0.07300
C422        C  0.00230610  0.59535115  0.70296866    -0.14800
H423        H  0.06902599  0.63226771  0.73075223     0.11300
H424        H  0.96515148  0.55217990  0.83225780     0.11300
H425        H  0.90890882  0.52755622  0.76761385     0.11300
H426        H  0.01303743  0.60886970  0.66734539     0.11300
C427        C  0.88299435  0.27006800  0.90481060    -0.14800
C428        C  0.89287406  0.26717320  0.95298876     0.07300
C429        C  0.91764453  0.24596989  0.96402572    -0.14800
C430        C  0.93353118  0.22930733  0.92759700    -0.14800
C431        C  0.92614531  0.23480434  0.87935200     0.07300
C432        C  0.90016633  0.25470698  0.86826538    -0.14800
H433        H  0.86473164  0.28698302  0.89532402     0.11300
H434        H  0.92615147  0.24384381  0.00090647     0.11300
H435        H  0.95415856  0.21491088  0.93699992     0.11300
H436        H  0.89461300  0.25987133  0.83122213     0.11300
C437        C  0.01149418  0.48087266  0.03652857    -0.14800
C438        C  0.96767405  0.45938087  0.01808389     0.07300
C439        C  0.95355221  0.48359689  0.98984951    -0.14800
C440        C  0.98318116  0.52868898  0.97979513    -0.14800
C441        C  0.02732896  0.54975460  0.99741635     0.07300
C442        C  0.04112734  0.52555016  0.02603048    -0.14800
H443        H  0.02308960  0.46299005  0.05875488     0.11300
H444        H  0.91964158  0.46783447  0.97599563     0.11300
H445        H  0.97203561  0.54662374  0.95704572     0.11300
H446        H  0.07505859  0.54099873  0.03979229     0.11300
C447        C  0.97882196  0.46975770  0.46399303    -0.14800
C448        C  0.01677805  0.47987709  0.49178090     0.07300
C449        C  0.02713241  0.50776951  0.53210042    -0.14800
C450        C  0.00038832  0.52604456  0.54390447    -0.14800
C451        C  0.96303067  0.51670002  0.51544530     0.07300
C452        C  0.95218643  0.48807134  0.47572137    -0.14800
H453        H  0.97007406  0.44833453  0.43257499     0.11300
H454        H  0.05626966  0.51613135  0.55396106     0.11300
H455        H  0.00907839  0.54757202  0.57522798     0.11300
H456        H  0.92318316  0.47981634  0.45366712     0.11300
C457        C  0.07449335  0.31955451  0.53495223    -0.14800
C458        C  0.09764921  0.36555927  0.54668423     0.07300
C459        C  0.10766893  0.37858816  0.59482024    -0.14800
C460        C  0.09164344  0.34609561  0.63090804    -0.14800
C461        C  0.06663376  0.30013961  0.61929255     0.07300
C462        C  0.05965695  0.28703599  0.57098020    -0.14800
H463        H  0.06594325  0.30885673  0.49799173     0.11300
H464        H  0.12467383  0.41381175  0.60469299     0.11300
H465        H  0.09665630  0.35686304  0.66806005     0.11300
H466        H  0.03960398  0.25187957  0.56129050     0.11300
C467        C  0.03477595  0.44698080  0.24279523    -0.14800
C468        C  0.02175135  0.43555829  0.29064241     0.07300
C469        C  0.97574236  0.41016300  0.30134154    -0.14800
C470        C  0.94343613  0.39503348  0.26472681    -0.14800
C471        C  0.95667186  0.40393850  0.21664841     0.07300
C472        C  0.00253664  0.43064947  0.20605491    -0.14800
H473        H  0.06998105  0.46569299  0.23354302     0.11300
H474        H  0.96493256  0.40044825  0.33795651     0.11300
H475        H  0.90841124  0.37369362  0.27368681     0.11300
H476        H  0.01351509  0.43720025  0.16911622     0.11300
C477        C  0.80180972  0.18457447  0.69160383    -0.14800
C478        C  0.78223791  0.15136322  0.65612494     0.07300
C479        C  0.80836562  0.13681291  0.63157874    -0.14800
C480        C  0.85344330  0.15512597  0.64248265    -0.14800
C481        C  0.87294843  0.18810017  0.67817163     0.07300
C482        C  0.84692512  0.20287359  0.70254874    -0.14800
H483        H  0.78248199  0.19678684  0.71043838     0.11300
H484        H  0.79406949  0.11136728  0.60374693     0.11300
H485        H  0.87272268  0.14284233  0.62367102     0.11300
H486        H  0.86128391  0.22826589  0.73042899     0.11300
C487        C  0.76719965  0.31183041  0.54244541    -0.14800
C488        C  0.75117530  0.28759179  0.58521434     0.07300
C489        C  0.76083916  0.31190153  0.62864575    -0.14800
C490        C  0.78348662  0.35903348  0.62902556    -0.14800
C491        C  0.79770372  0.38326136  0.58603840     0.07300
C492        C  0.79043695  0.35897953  0.54288735    -0.14800
H493        H  0.76052936  0.29435051  0.50840226     0.11300
H494        H  0.74894577  0.29447361  0.66235345     0.11300
H495        H  0.78848207  0.37643972  0.66290121     0.11300
H496        H  0.80087435  0.37636686  0.50900077     0.11300
C497        C  0.83689317  0.13965068  0.13997055    -0.14800
C498        C  0.80578978  0.12114354  0.17727412     0.07300
C499        C  0.79208614  0.14797619  0.20190191    -0.14800
C500        C  0.80955939  0.19277286  0.18968080    -0.14800
C501        C  0.84097457  0.21139175  0.15266464     0.07300
C502        C  0.85435381  0.18444119  0.12774172    -0.14800
H503        H  0.84831074  0.11979246  0.12076110     0.11300
H504        H  0.76819012  0.13452988  0.23098409     0.11300
H505        H  0.79826290  0.21268172  0.20899147     0.11300
H506        H  0.87835263  0.19792315  0.09875747     0.11300
C507        C  0.77324063  0.06871398  0.42788587    -0.14800
C508        C  0.76266781  0.07156244  0.37993080     0.07300
C509        C  0.73786056  0.09294045  0.36977024    -0.14800
C510        C  0.72260002  0.10970989  0.40681149    -0.14800
C511        C  0.73061890  0.10416312  0.45487360     0.07300
C512        C  0.75669643  0.08416760  0.46503779    -0.14800
H513        H  0.79146371  0.05162406  0.43679392     0.11300
H514        H  0.72871555  0.09500074  0.33313537     0.11300
H515        H  0.70183697  0.12411064  0.39804410     0.11300
H516        H  0.76270116  0.07886167  0.50187219     0.11300
C517        C  0.85371542  0.88627023  0.29003959    -0.14800
C518        C  0.84995956  0.90580477  0.24719417     0.07300
C519        C  0.86722824  0.89811317  0.20493005    -0.14800
C520        C  0.89065964  0.87470114  0.20605654    -0.14800
C521        C  0.89762419  0.85831543  0.24946064     0.07300
C522        C  0.87729805  0.86271215  0.29115451    -0.14800
H523        H  0.84049189  0.89120316  0.32328510     0.11300
H524        H  0.86464930  0.91213456  0.17124579     0.11300
H525        H  0.90526199  0.87132219  0.17302326     0.11300
H526        H  0.88187782  0.85037658  0.32505975     0.11300
C527        C  0.67454216  0.91072903  0.03297631    -0.14800
C528        C  0.62862805  0.89415027  0.04198528     0.07300
C529        C  0.61487878  0.89219325  0.08981980    -0.14800
C530        C  0.64628808  0.90936448  0.12710644    -0.14800
C531        C  0.69226193  0.92793988  0.11794484     0.07300
C532        C  0.70602909  0.92703067  0.07071731    -0.14800
H533        H  0.68632797  0.91276716  0.99659268     0.11300
H534        H  0.57997399  0.87983404  0.09828433     0.11300
H535        H  0.63475885  0.90970119  0.16315654     0.11300
H536        H  0.74131387  0.94158593  0.06259392     0.11300
C537        C  0.55477511  0.95530200  0.74219792    -0.14800
C538        C  0.55462904  0.96814970  0.79009165     0.07300
C539        C  0.56949812  0.01376426  0.79999697    -0.14800
C540        C  0.58610547  0.04590287  0.76313920    -0.14800
C541        C  0.58902619  0.03312183  0.71593802     0.07300
C542        C  0.57220744  0.98737899  0.70582337    -0.14800
H543        H  0.54381964  0.92067499  0.73309367     0.11300
H544        H  0.56992100  0.02486075  0.83648411     0.11300
H545        H  0.59925910  0.08098067  0.77202692     0.11300
H546        H  0.57408042  0.97658672  0.66976696     0.11300
C547        C  0.30466767  0.77706910  0.95720602    -0.14800
C548        C  0.27899265  0.76185064  0.91519374     0.07300
C549        C  0.30113554  0.77388927  0.87060538    -0.14800
C550        C  0.34804842  0.79746296  0.86810060    -0.14800
C551        C  0.37368470  0.80885520  0.91017460     0.07300
C552        C  0.35155429  0.80003197  0.95470803    -0.14800
H553        H  0.28864625  0.76836124  0.99196395     0.11300
H554        H  0.28211006  0.76293639  0.83753836     0.11300
H555        H  0.36408486  0.80375736  0.83339012     0.11300
H556        H  0.37056432  0.80883298  0.98780724     0.11300
C557        C  0.17654603  0.81224314  0.32190896    -0.14800
C558        C  0.20014150  0.85036516  0.35110225     0.07300
C559        C  0.17779631  0.87147674  0.37065917    -0.14800
C560        C  0.13296501  0.85559171  0.36014188    -0.14800
C561        C  0.10948573  0.81801492  0.33028304     0.07300
C562        C  0.13133496  0.79597734  0.31176472    -0.14800
H563        H  0.19291093  0.79492020  0.30726461     0.11300
H564        H  0.19510230  0.90066035  0.39377484     0.11300
H565        H  0.11686190  0.87319988  0.37473075     0.11300
H566        H  0.11394026  0.76719307  0.28814772     0.11300
C567        C  0.52074456  0.03845559  0.47405650    -0.14800
C568        C  0.53848151  0.02662404  0.51276447     0.07300
C569        C  0.51095688  0.98698762  0.53813647    -0.14800
C570        C  0.46615198  0.96006956  0.52558225    -0.14800
C571        C  0.44818532  0.97234826  0.48746768     0.07300
C572        C  0.47592841  0.01150160  0.46147110    -0.14800
H573        H  0.54120087  0.06892178  0.45408496     0.11300
H574        H  0.52382031  0.97703337  0.56819196     0.11300
H575        H  0.44567375  0.92966685  0.54564414     0.11300
H576        H  0.46301601  0.02146392  0.43146808     0.11300
C577        C  0.21470562  0.69011925  0.37780641    -0.14800
C578        C  0.23078777  0.71396469  0.42130825     0.07300
C579        C  0.22008450  0.68949409  0.46413107    -0.14800
C580        C  0.19599111  0.64244284  0.46327290    -0.14800
C581        C  0.18250007  0.61859631  0.41952897     0.07300
C582        C  0.19117398  0.64305033  0.37690099    -0.14800
H583        H  0.22220242  0.70778385  0.34405785     0.11300
H584        H  0.23179349  0.70663944  0.49823657     0.11300
H585        H  0.19001915  0.62474912  0.49686052     0.11300
H586        H  0.18117216  0.62582644  0.34265972     0.11300
C587        C  0.21220182  0.93205177  0.57534815    -0.14800
C588        C  0.22147029  0.92786448  0.62334874     0.07300
C589        C  0.24523066  0.90555708  0.63396107    -0.14800
C590        C  0.26108815  0.88933160  0.59711172    -0.14800
C591        C  0.25464176  0.89645858  0.54907318     0.07300
C592        C  0.22932898  0.91713227  0.53846212    -0.14800
H593        H  0.19474576  0.94989628  0.56633307     0.11300
H594        H  0.25326988  0.90254771  0.67077915     0.11300
H595        H  0.28116291  0.87421251  0.60608741     0.11300
H596        H  0.22447601  0.92343150  0.50158365     0.11300
C597        C  0.13748060  0.85085759  0.84482302    -0.14800
C598        C  0.17756910  0.87618032  0.81960135     0.07300
C599        C  0.20012659  0.85510113  0.80062271    -0.14800
C600        C  0.18329985  0.80958687  0.80708880    -0.14800
C601        C  0.14356636  0.78413533  0.83274552     0.07300
C602        C  0.12042814  0.80490097  0.85124279    -0.14800
H603        H  0.11907534  0.86636346  0.85874123     0.11300
H604        H  0.23090551  0.87384026  0.78053685     0.11300
H605        H  0.20194477  0.79448960  0.79274617     0.11300
H606        H  0.09001510  0.78596716  0.87182051     0.11300
C607        C  0.12019032  0.10203827  0.70842247    -0.14800
C608        C  0.13028362  0.08963865  0.75283181     0.07300
C609        C  0.11801719  0.10317342  0.79496473    -0.14800
C610        C  0.09506738  0.12718520  0.79276682    -0.14800
C611        C  0.08302509  0.13764912  0.74837934     0.07300
C612        C  0.09652241  0.12536600  0.70621740    -0.14800
H613        H  0.12888610  0.09200768  0.67510740     0.11300
H614        H  0.12511208  0.09419829  0.82966573     0.11300
H615        H  0.08505837  0.13588841  0.82607897     0.11300
H616        H  0.08783171  0.13278528  0.67151490     0.11300
C617        C  0.51471419  0.03837168  0.99008406    -0.14800
C618        C  0.47434320  0.02330073  0.01490022     0.07300
C619        C  0.45085162  0.97900362  0.03160385    -0.14800
C620        C  0.46712299  0.95000447  0.02336783    -0.14800
C621        C  0.50735097  0.96473407  0.99840698     0.07300
C622        C  0.53128305  0.00923147  0.98204427    -0.14800
H623        H  0.53375214  0.07272745  0.97780219     0.11300
H624        H  0.41977663  0.96671290  0.05121974     0.11300
H625        H  0.44779692  0.91577933  0.03599020     0.11300
H626        H  0.56204646  0.02108654  0.96198110     0.11300
C627        C  0.37046477  0.11486621  0.90761686    -0.14800
C628        C  0.35831259  0.10325430  0.95563416     0.07300
C629        C  0.31250738  0.07821555  0.96728892    -0.14800
C630        C  0.27952917  0.06305795  0.93143118    -0.14800
C631        C  0.29181348  0.07161262  0.88310724     0.07300
C632        C  0.33749827  0.09849469  0.87156431    -0.14800
H633        H  0.40549484  0.13348411  0.89762752     0.11300
H634        H  0.30235224  0.06851981  0.00405884     0.11300
H635        H  0.24470755  0.04165937  0.94113948     0.11300
H636        H  0.34778346  0.10486121  0.83440714     0.11300
C637        C  0.43503425  0.04510070  0.26277283    -0.14800
C638        C  0.42949350  0.03183631  0.21447722     0.07300
C639        C  0.40847751  0.98569902  0.20342801    -0.14800
C640        C  0.39186777  0.95337155  0.23990144    -0.14800
C641        C  0.39459496  0.96657942  0.28802593     0.07300
C642        C  0.41714335  0.01277108  0.29913897    -0.14800
H643        H  0.45019087  0.08032509  0.27219718     0.11300
H644        H  0.40313483  0.97464427  0.16637619     0.11300
H645        H  0.37403473  0.91808266  0.23029566     0.11300
H646        H  0.41928010  0.02380466  0.33596475     0.11300
C647        C  0.63457683  0.20577370  0.03967467    -0.14800
C648        C  0.61189721  0.19248806  0.08391314     0.07300
C649        C  0.63733751  0.20191108  0.12597732    -0.14800
C650        C  0.68425329  0.22558027  0.12403023    -0.14800
C651        C  0.70697800  0.24118579  0.08004252     0.07300
C652        C  0.68149285  0.23009917  0.03778219    -0.14800
H653        H  0.61603722  0.19932514  0.00646698     0.11300
H654        H  0.62101029  0.19216576  0.16051854     0.11300
H655        H  0.70269764  0.23344372  0.15743964     0.11300
H656        H  0.69771286  0.24160024  0.00339451     0.11300
C657        C  0.28848810  0.15635730  0.13675023    -0.14800
C658        C  0.29952525  0.18585796  0.17567289     0.07300
C659        C  0.33768476  0.19660656  0.20350572    -0.14800
C660        C  0.36445705  0.17817938  0.19246322    -0.14800
C661        C  0.35346013  0.14875917  0.15345444     0.07300
C662        C  0.31523973  0.13794158  0.12571661    -0.14800
H663        H  0.25899964  0.14713734  0.11513979     0.11300
H664        H  0.34674601  0.21900539  0.23412204     0.11300
H665        H  0.39392873  0.18734211  0.21408039     0.11300
H666        H  0.30609976  0.11548566  0.09514465     0.11300
C667        C  0.14849873  0.29533409  0.35944682    -0.14800
C668        C  0.17666640  0.30696363  0.31950144     0.07300
C669        C  0.18708047  0.34588340  0.29358546    -0.14800
C670        C  0.16931338  0.37263056  0.30720551    -0.14800
C671        C  0.14089186  0.36085073  0.34691007     0.07300
C672        C  0.13072920  0.32210778  0.37308553    -0.14800
H673        H  0.13974557  0.26533342  0.37977901     0.11300
H674        H  0.20865813  0.35553578  0.26246235     0.11300
H675        H  0.17805623  0.40260487  0.28683247     0.11300
H676        H  0.10915130  0.31248575  0.40421225     0.11300
C677        C  0.13257225  0.02597666  0.20349984    -0.14800
C678        C  0.13594197  0.04896070  0.24679897     0.07300
C679        C  0.11737097  0.02365944  0.28835138    -0.14800
C680        C  0.09330890  0.97680992  0.28610275    -0.14800
C681        C  0.08697722  0.95380899  0.24225122     0.07300
C682        C  0.10832942  0.97883051  0.20124884    -0.14800
H683        H  0.14666896  0.04442295  0.17073904     0.11300
H684        H  0.11946627  0.04002931  0.32229132     0.11300
H685        H  0.07785565  0.95857315  0.31863333     0.11300
H686        H  0.10420312  0.96218435  0.16703231     0.11300
C687        C  0.01742874  0.12740678  0.29067256    -0.14800
C688        C  0.04031411  0.13926870  0.24651696     0.07300
C689        C  0.01491602  0.12943506  0.20424789    -0.14800
C690        C  0.96790203  0.10669684  0.20600470    -0.14800
C691        C  0.94498125  0.09248985  0.25002930     0.07300
C692        C  0.97045268  0.10406110  0.29239103    -0.14800
H693        H  0.03580826  0.13428640  0.32403962     0.11300
H694        H  0.03133321  0.13815367  0.16970122     0.11300
H695        H  0.94948767  0.09838565  0.17254745     0.11300
H696        H  0.95410221  0.09373027  0.32686766     0.11300
C697        C  0.31572007  0.18141139  0.62642195    -0.14800
C698        C  0.35328321  0.21029515  0.65439216     0.07300
C699        C  0.36281814  0.19441588  0.69620317    -0.14800
C700        C  0.33528551  0.15014585  0.70976643    -0.14800
C701        C  0.29790202  0.12118184  0.68162904     0.07300
C702        C  0.28820388  0.13713260  0.63997184    -0.14800
H703        H  0.30773291  0.19283156  0.59377196     0.11300
H704        H  0.39164360  0.21601173  0.71821463     0.11300
H705        H  0.34325464  0.13872052  0.74242116     0.11300
H706        H  0.25936071  0.11553712  0.61798008     0.11300
C707        C  0.37275919  0.27503018  0.40238158    -0.14800
C708        C  0.35913594  0.26250594  0.44987903     0.07300
C709        C  0.31349975  0.23280987  0.45919393    -0.14800
C710        C  0.28181094  0.21707477  0.42180987    -0.14800
C711        C  0.29506680  0.23211663  0.37474792     0.07300
C712        C  0.34097552  0.26047010  0.36528901    -0.14800
H713        H  0.40757437  0.29855480  0.39444022     0.11300
H714        H  0.30216618  0.22331214  0.49570005     0.11300
H715        H  0.24664621  0.19581517  0.43019707     0.11300
H716        H  0.35203411  0.27281036  0.32936232     0.11300
C717        C  0.63339122  0.43409267  0.53682434    -0.14800
C718        C  0.61048737  0.42612012  0.58077190     0.07300
C719        C  0.63552759  0.44541762  0.62259938    -0.14800
C720        C  0.68241668  0.47030921  0.62082493    -0.14800
C721        C  0.70541731  0.47583431  0.57730120     0.07300
C722        C  0.68025461  0.45835808  0.53514935    -0.14800
H723        H  0.61517297  0.41960249  0.50383138     0.11300
H724        H  0.61896661  0.44009135  0.65690313     0.11300
H725        H  0.70068867  0.48331818  0.65408777     0.11300
H726        H  0.69675759  0.46186633  0.50110480     0.11300
C727        C  0.52583210  0.22422084  0.62549769    -0.14800
C728        C  0.51815764  0.23922632  0.58144994     0.07300
C729        C  0.53226228  0.22780266  0.53915350    -0.14800
C730        C  0.55564373  0.20427746  0.54101452    -0.14800
C731        C  0.56604660  0.19202923  0.58524867     0.07300
C732        C  0.54977382  0.20119876  0.62740186    -0.14800
H733        H  0.51529686  0.23221542  0.65889435     0.11300
H734        H  0.52691806  0.23867190  0.50468720     0.11300
H735        H  0.56765780  0.19780943  0.50773712     0.11300
H736        H  0.55695370  0.19206806  0.66197673     0.11300
C737        C  0.44298208  0.40261109  0.76128125    -0.14800
C738        C  0.42867866  0.40205184  0.71401465     0.07300
C739        C  0.40169998  0.42101965  0.70458755    -0.14800
C740        C  0.38790382  0.43878832  0.74171142    -0.14800
C741        C  0.39971927  0.43696673  0.78957190     0.07300
C742        C  0.42822439  0.41948250  0.79884340    -0.14800
H743        H  0.46328586  0.38759315  0.76951371     0.11300
H744        H  0.39007299  0.42079089  0.66846383     0.11300
H745        H  0.36582164  0.45168182  0.73310959     0.11300
H746        H  0.43776428  0.41734392  0.83527335     0.11300
C747        C  0.20659427  0.28529340  0.06733150    -0.14800
C748        C  0.21870902  0.29934270  0.11505815     0.07300
C749        C  0.24366868  0.34554098  0.12510084    -0.14800
C750        C  0.25817617  0.37706658  0.08815804    -0.14800
C751        C  0.24907920  0.36317993  0.03994599     0.07300
C752        C  0.22199552  0.31690927  0.03004208    -0.14800
H753        H  0.18789883  0.24983648  0.05860502     0.11300
H754        H  0.25360421  0.35720647  0.16160318     0.11300
H755        H  0.27894292  0.41225880  0.09729135     0.11300
H756        H  0.21438503  0.30500372  0.99335807     0.11300
C757        C  0.18985630  0.32257868  0.84626094    -0.14800
C758        C  0.21013112  0.36725014  0.83051714     0.07300
C759        C  0.18464838  0.38219974  0.80599874    -0.14800
C760        C  0.13941677  0.35346816  0.79837372    -0.14800
C761        C  0.11877206  0.30920408  0.81502488     0.07300
C762        C  0.14416686  0.29362389  0.83865837    -0.14800
H763        H  0.20888274  0.31054482  0.86579123     0.11300
H764        H  0.19941454  0.41651596  0.79369575     0.11300
H765        H  0.12048637  0.36601608  0.77949543     0.11300
H766        H  0.12887054  0.25916310  0.85060770     0.11300
C767        C  0.43754654  0.64408915  0.87151776    -0.14800
C768        C  0.42170544  0.61852771  0.91327045     0.07300
C769        C  0.43372505  0.64052978  0.95812313    -0.14800
C770        C  0.45798118  0.68743490  0.96109895    -0.14800
C771        C  0.46993793  0.71304401  0.91921835     0.07300
C772        C  0.46119663  0.69098255  0.87447715    -0.14800
H773        H  0.42875844  0.62804662  0.83659869     0.11300
H774        H  0.42220073  0.62145314  0.99094554     0.11300
H775        H  0.46421302  0.70353822  0.99592995     0.11300
H776        H  0.47043944  0.71008785  0.84158453     0.11300
C777        C  0.21092117  0.53116055  0.95575223    -0.14800
C778        C  0.22845971  0.52202643  0.91471141     0.07300
C779        C  0.21829402  0.53284811  0.86945523    -0.14800
C780        C  0.19455485  0.55594099  0.86557222    -0.14800
C781        C  0.18100688  0.56906234  0.90695719     0.07300
C782        C  0.18769618  0.55476165  0.95190276    -0.14800
H783        H  0.21812596  0.52324822  0.99096522     0.11300
H784        H  0.23103073  0.52574896  0.83707139     0.11300
H785        H  0.19000077  0.56657729  0.83060200     0.11300
H786        H  0.17722374  0.56420585  0.98443261     0.11300
C787        C  0.70515232  0.86647320  0.83985953    -0.14800
C788        C  0.69224548  0.82117630  0.83199051     0.07300
C789        C  0.64656421  0.78918014  0.82796569    -0.14800
C790        C  0.61438956  0.80220812  0.83172954    -0.14800
C791        C  0.62728142  0.84749422  0.83960983     0.07300
C792        C  0.67295928  0.87950501  0.84365384    -0.14800
H793        H  0.74019441  0.89204999  0.84229019     0.11300
H794        H  0.63565185  0.75414581  0.82124535     0.11300
H795        H  0.57935466  0.77661499  0.82924120     0.11300
H796        H  0.68383883  0.91453535  0.85034938     0.11300
C797        C  0.86285668  0.68845182  0.62899022    -0.14800
C798        C  0.84258711  0.64548205  0.64930551     0.07300
C799        C  0.80595123  0.63181356  0.68017973    -0.14800
C800        C  0.78971879  0.66080552  0.69040789    -0.14800
C801        C  0.81031476  0.70386798  0.67026844     0.07300
C802        C  0.84700682  0.71746874  0.63959089    -0.14800
H803        H  0.89111038  0.69975675  0.60492564     0.11300
H804        H  0.78953941  0.59862747  0.69582180     0.11300
H805        H  0.76194735  0.65006257  0.71504440     0.11300
H806        H  0.86372005  0.75073265  0.62411108     0.11300
C807        C  0.85504706  0.98036606  0.70776945    -0.14800
C808        C  0.85060760  0.95615093  0.74966807     0.07300
C809        C  0.86709379  0.97988989  0.79308240    -0.14800
C810        C  0.89054740  0.02671874  0.79413851    -0.14800
C811        C  0.89808203  0.05116968  0.75179023     0.07300
C812        C  0.87861388  0.02750236  0.70881647    -0.14800
H813        H  0.84274548  0.96305070  0.67383765     0.11300
H814        H  0.86372713  0.96220075  0.82618854     0.11300
H815        H  0.90469763  0.04369183  0.82783796     0.11300
H816        H  0.88365108  0.04532869  0.67546422     0.11300
C817        C  0.96799920  0.88036588  0.71295929    -0.14800
C818        C  0.94531938  0.86130454  0.75615772     0.07300
C819        C  0.97043224  0.86144964  0.79578760    -0.14800
C820        C  0.01744367  0.88328608  0.79315673    -0.14800
C821        C  0.04012358  0.90532880  0.75085447     0.07300
C822        C  0.01463584  0.90206771  0.71035550    -0.14800
H823        H  0.94977769  0.88032349  0.68133726     0.11300
H824        H  0.95403954  0.84685226  0.82939747     0.11300
H825        H  0.03609976  0.88488263  0.82502895     0.11300
H826        H  0.03075970  0.91833542  0.67719054     0.11300
C827        C  0.80720985  0.62879654  0.17811881    -0.14800
C828        C  0.78319765  0.64195499  0.14822495     0.07300
C829        C  0.80572726  0.68387218  0.12542878    -0.14800
C830        C  0.85118680  0.71252454  0.13303807    -0.14800
C831        C  0.87516699  0.69973607  0.16327134     0.07300
C832        C  0.85305770  0.65748771  0.18542920    -0.14800
H833        H  0.79070720  0.59634497  0.19540211     0.11300
H834        H  0.78815782  0.69476970  0.10177408     0.11300
H835        H  0.86744048  0.74506127  0.11590278     0.11300
H836        H  0.87084306  0.64732236  0.20966925     0.11300
C837        C  0.73019054  0.62168739  0.90730201    -0.14800
C838        C  0.72572642  0.63391112  0.95426873     0.07300
C839        C  0.74242220  0.67963554  0.96462577    -0.14800
C840        C  0.76132178  0.71218785  0.92869232    -0.14800
C841        C  0.76309227  0.69988687  0.88092734     0.07300
C842        C  0.74817903  0.65426037  0.87088241    -0.14800
H843        H  0.71735063  0.58670974  0.89816830     0.11300
H844        H  0.73955764  0.69009586  0.00052094     0.11300
H845        H  0.77217109  0.74676741  0.93790918     0.11300
H846        H  0.74889829  0.64349704  0.83451274     0.11300
C847        C  0.46565119  0.52280390  0.02906681    -0.14800
C848        C  0.44172262  0.48528640  0.99928477     0.07300
C849        C  0.46351868  0.46386884  0.97901266    -0.14800
C850        C  0.50881150  0.47996214  0.98837613    -0.14800
C851        C  0.53255795  0.51730298  0.01852361     0.07300
C852        C  0.51058159  0.53851203  0.03882550    -0.14800
H853        H  0.44970136  0.54022000  0.04454622     0.11300
H854        H  0.44587289  0.43545620  0.95497376     0.11300
H855        H  0.52500585  0.46286244  0.97273184     0.11300
H856        H  0.52814564  0.56738533  0.06230447     0.11300
C857        C  0.76462137  0.46536125  0.12540044    -0.14800
C858        C  0.75006914  0.47389032  0.08148527     0.07300
C859        C  0.76163744  0.46036459  0.03887816    -0.14800
C860        C  0.78546866  0.43725384  0.04024942    -0.14800
C861        C  0.79774160  0.42647549  0.08428601     0.07300
C862        C  0.78784123  0.44164754  0.12679965    -0.14800
H863        H  0.75625283  0.47517436  0.15905557     0.11300
H864        H  0.75095735  0.46625911  0.00454038     0.11300
H865        H  0.79238139  0.42593217  0.00671344     0.11300
H866        H  0.79678961  0.43398641  0.16123164     0.11300
C867        C  0.55720655  0.35680738  0.04329958    -0.14800
C868        C  0.56712565  0.38013109  0.08742729     0.07300
C869        C  0.55183981  0.35496989  0.12967498    -0.14800
C870        C  0.52849825  0.30781283  0.12784136    -0.14800
C871        C  0.52051986  0.28457704  0.08378363     0.07300
C872        C  0.53457208  0.30978899  0.04152185    -0.14800
H873        H  0.56872162  0.37494279  0.00992987     0.11300
H874        H  0.55892488  0.37169411  0.16420192     0.11300
H875        H  0.51835072  0.28957456  0.16125679     0.11300
H876        H  0.52924877  0.29323182  0.00705821     0.11300
C877        C  0.58162198  0.57564266  0.30278036    -0.14800
C878        C  0.55684131  0.59694361  0.29216880     0.07300
C879        C  0.54699375  0.60019444  0.24407200    -0.14800
C880        C  0.56420851  0.58516710  0.20722860    -0.14800
C881        C  0.59027201  0.56524481  0.21783386     0.07300
C882        C  0.59756885  0.55929327  0.26600958    -0.14800
H883        H  0.59016001  0.57327554  0.33957961     0.11300
H884        H  0.52876755  0.61721734  0.23487330     0.11300
H885        H  0.55862079  0.59062723  0.17030125     0.11300
H886        H  0.61818543  0.54481330  0.27511941     0.11300
C887        C  0.66883025  0.76028415  0.54468027    -0.14800
C888        C  0.62274813  0.73829226  0.55478132     0.07300
C889        C  0.60917406  0.73562249  0.60271566    -0.14800
C890        C  0.64114785  0.75217479  0.63997203    -0.14800
C891        C  0.68736230  0.77240026  0.62994606     0.07300
C892        C  0.70069741  0.77758021  0.58162514    -0.14800
H893        H  0.68018782  0.76254636  0.50805042     0.11300
H894        H  0.57386060  0.71820865  0.61154829     0.11300
H895        H  0.62958937  0.74744651  0.67670388     0.11300
H896        H  0.73580151  0.79277056  0.57233380     0.11300
C897        C  0.62228421  0.80453003  0.30842132    -0.14800
C898        C  0.63283557  0.78851198  0.34951401     0.07300
C899        C  0.67164431  0.81710888  0.37592633    -0.14800
C900        C  0.69894423  0.86142294  0.36197302    -0.14800
C901        C  0.68775525  0.87769510  0.32148302     0.07300
C902        C  0.64952082  0.84877432  0.29451222    -0.14800
H903        H  0.59258273  0.78316680  0.28746486     0.11300
H904        H  0.68059395  0.80549772  0.40779103     0.11300
H905        H  0.72864479  0.88287549  0.38289415     0.11300
H906        H  0.64045935  0.86031118  0.26267309     0.11300
C907        C  0.50361781  0.47278656  0.47569302    -0.14800
C908        C  0.47344207  0.45395605  0.51365943     0.07300
C909        C  0.46102942  0.48079197  0.54043223    -0.14800
C910        C  0.47855942  0.52581133  0.52939000    -0.14800
C911        C  0.50875599  0.54465564  0.49144723     0.07300
C912        C  0.52115974  0.51781834  0.46465515    -0.14800
H913        H  0.51406002  0.45293911  0.45490208     0.11300
H914        H  0.43795666  0.46713589  0.57020359     0.11300
H915        H  0.46813005  0.54565542  0.55020528     0.11300
H916        H  0.54422997  0.53148280  0.43488259     0.11300
C917        C  0.45410348  0.77463986  0.46292836    -0.14800
C918        C  0.46406534  0.75901108  0.42074122     0.07300
C919        C  0.45205484  0.76965413  0.37645605    -0.14800
C920        C  0.42832531  0.79290550  0.37452210    -0.14800
C921        C  0.41657806  0.80677450  0.41680254     0.07300
C922        C  0.43103001  0.79854674  0.46096259    -0.14800
H923        H  0.46289728  0.76718902  0.49755736     0.11300
H924        H  0.45903327  0.75804869  0.34315168     0.11300
H925        H  0.41782035  0.79860688  0.33998397     0.11300
H926        H  0.42261983  0.80868297  0.49438662     0.11300
C927        C  0.34703260  0.56075909  0.37526116    -0.14800
C928        C  0.37183632  0.57387164  0.41812882     0.07300
C929        C  0.34823509  0.56073153  0.46182303    -0.14800
C930        C  0.30123970  0.53775247  0.46269389    -0.14800
C931        C  0.27644294  0.52664678  0.41987629     0.07300
C932        C  0.29997884  0.53715323  0.37612793    -0.14800
H933        H  0.36395441  0.57012022  0.34101233     0.11300
H934        H  0.36608559  0.57016937  0.49565135     0.11300
H935        H  0.28437091  0.53008442  0.49699275     0.11300
H936        H  0.28206631  0.52911099  0.34236297     0.11300
loop_ 
_geom_bond_atom_site_label_1 
_geom_bond_atom_site_label_2 
_geom_bond_distance 
_geom_bond_site_symmetry_2 
_ccdc_geom_bond_type 
O1          Cr19   1.931       .  S
O1            C9   1.260       .  A
O2          Cr19   1.993       .  S
O2            C3   1.255       .  A
C3            O4   1.259       .  A
C3          C878   1.485       .  S
O4          Cr20   2.008       .  S
O5          Cr20   2.014       .  S
O5            C6   1.268       .  A
C6            O7   1.260       .  A
C6          C928   1.494       .  S
O7          Cr21   1.977       .  S
O8          Cr21   2.021       .  S
O8            C9   1.278       .  A
C9          C911   1.462       .  S
O10         Cr19   1.992       .  S
O10          C18   1.254       .  A
O11         Cr19   1.939       .  S
O11          C12   1.262       .  A
C12          O13   1.277       .  A
C12         C898   1.462       .  S
O13         Cr20   2.018       .  S
O14         Cr20   1.975       .  S
O14          C15   1.260       .  A
C15          O16   1.270       .  A
C15         C918   1.491       .  S
O16         Cr21   2.014       .  S
O17         Cr21   2.010       .  S
O17          C18   1.259       .  A
C18         C888   1.487       .  S
Cr19         O22   1.780       .  S
Cr20         O22   1.778       .  S
Cr21         O22   1.779       .  S
O23         Cr41   1.932       .  S
O23          C31   1.261       .  A
O24         Cr41   1.994       .  S
O24          C25   1.255   1_554  A
C25          O26   1.258       .  A
C25         C838   1.492       .  S
O26         Cr42   2.014   1_556  S
O27         Cr42   2.011       .  S
O27          C28   1.269       .  A
C28          O29   1.258       .  A
C28         C858   1.488       .  S
O29         Cr43   1.966       .  S
O30         Cr43   2.030       .  S
O30          C31   1.280       .  A
C31         C828   1.467       .  S
O32         Cr41   1.994       .  S
O32          C40   1.254       .  A
O33         Cr41   1.933       .  S
O33          C34   1.262       .  A
C34          O35   1.279       .  A
C34         C851   1.464       .  S
O35         Cr42   2.028       .  S
O36         Cr42   1.972       .  S
O36          C37   1.260       .  A
C37          O38   1.270       .  A
C37         C868   1.494       .  S
O38         Cr43   2.019       .  S
O39         Cr43   2.008       .  S
O39          C40   1.257       .  A
C40         C881   1.485       .  S
Cr41         O44   1.780       .  S
Cr42         O44   1.778       .  S
Cr43         O44   1.780       .  S
O45         Cr63   1.993       .  S
O45          C53   1.267       .  A
O46         Cr63   1.989       .  S
O46          C47   1.256       .  A
C47          O48   1.264       .  A
C47         C841   1.499       .  S
O48         Cr64   2.020       .  S
O49         Cr64   2.010       .  S
O49          C50   1.272       .  A
C50          O51   1.266       .  A
C50         C818   1.488       .  S
O51         Cr65   1.993       .  S
O52         Cr65   1.951       .  S
O52          C53   1.260       .  A
C53         C801   1.461       .  S
O54         Cr63   1.992       .  S
O54          C62   1.258       .  A
O55         Cr63   1.996       .  S
O55          C56   1.268       .  A
C56          O57   1.261       .  A
C56         C788   1.470       .  S
O57         Cr64   1.960       .  S
O58         Cr64   1.995       .  S
O58          C59   1.266       .  A
C59          O60   1.268       .  A
C59         C808   1.483       .  S
O60         Cr65   2.000       .  S
O61         Cr65   2.010       .  S
O61          C62   1.263       .  A
C62         C891   1.497       .  S
Cr63         O66   1.780       .  S
Cr64         O66   1.776       .  S
Cr65         O66   1.775       .  S
O67         Cr85   1.945       .  S
O67          C75   1.260       .  A
O68         Cr85   1.993       .  S
O68          C69   1.264       .  A
C69          O70   1.269       .  A
C69         C778   1.484       .  S
O70         Cr86   2.006       .  S
O71         Cr86   2.005   1_554  S
O71          C72   1.261       .  A
C72          O73   1.257   1_554  A
C72         C751   1.494       .  S
O73         Cr87   1.990       .  S
O74         Cr87   1.992       .  S
O74          C75   1.266       .  A
C75         C758   1.459       .  S
O76         Cr85   2.000       .  S
O76          C84   1.260       .  A
O77         Cr85   1.995       .  S
O77          C78   1.268       .  A
C78          O79   1.265       .  A
C78         C768   1.478       .  S
O79         Cr86   1.995       .  S
O80         Cr86   1.957       .  S
O80          C81   1.261       .  A
C81          O82   1.266       .  A
C81         C848   1.463       .  S
O82         Cr87   1.990       .  S
O83         Cr87   1.991       .  S
O83          C84   1.257       .  A
C84         C741   1.492       .  S
Cr85         O88   1.775       .  S
Cr86         O88   1.777       .  S
Cr87         O88   1.783       .  S
O89        Cr107   2.020       .  S
O89          C97   1.279       .  A
O90        Cr107   1.971       .  S
O90          C91   1.259       .  A
C91          O92   1.268       .  A
C91         C728   1.490       .  S
O92        Cr108   2.009       .  S
O93        Cr108   2.003       .  S
O93          C94   1.256       .  A
C94          O95   1.254       .  A
C94         C708   1.481       .  S
O95        Cr109   1.996       .  S
O96        Cr109   1.929       .  S
O96          C97   1.261       .  A
C97         C698   1.458       .  S
O98        Cr107   2.002       .  S
O98         C106   1.256       .  A
O99        Cr107   2.009       .  S
O99         C100   1.268       .  A
C100        O101   1.258       .  A
C100        C718   1.487       .  S
O101       Cr108   1.968       .  S
O102       Cr108   2.023       .  S
O102        C103   1.279       .  A
C103        O104   1.261       .  A
C103        C908   1.462       .  S
O104       Cr109   1.929       .  S
O105       Cr109   1.994       .  S
O105        C106   1.254       .  A
C106        C738   1.482       .  S
Cr107       O110   1.777       .  S
Cr108       O110   1.776       .  S
Cr109       O110   1.779       .  S
O111       Cr129   2.016       .  S
O111        C119   1.276       .  A
O112       Cr129   1.977       .  S
O112        C113   1.261       .  A
C113        O114   1.270       .  A
C113        C688   1.493       .  S
O114       Cr130   2.017       .  S
O115       Cr130   2.005       .  S
O115        C116   1.258       .  A
C116        O117   1.255       .  A
C116        C748   1.483       .  S
O117       Cr131   1.992       .  S
O118       Cr131   1.936       .  S
O118        C119   1.261       .  A
C119        C668   1.461       .  S
O120       Cr129   2.008       .  S
O120        C128   1.259       .  A
O121       Cr129   2.007       .  S
O121        C122   1.268       .  A
C122        O123   1.258       .  A
C122        C678   1.489       .  S
O123       Cr130   1.974       .  S
O124       Cr130   2.020       .  S
O124        C125   1.277       .  A
C125        O126   1.260       .  A
C125        C658   1.462       .  S
O126       Cr131   1.932       .  S
O127       Cr131   1.994       .  S
O127        C128   1.256       .  A
C128        C711   1.486       .  S
Cr129       O132   1.776       .  S
Cr130       O132   1.778       .  S
Cr131       O132   1.779       .  S
O133       Cr151   1.929       .  S
O133        C141   1.261       .  A
O134       Cr151   1.992       .  S
O134        C135   1.254       .  A
C135        O136   1.259       .  A
C135        C638   1.484       .  S
O136       Cr152   2.010       .  S
O137       Cr152   2.016       .  S
O137        C138   1.270       .  A
C138        O139   1.258       .  A
C138        C648   1.488       .  S
O139       Cr153   1.965       .  S
O140       Cr153   2.028       .  S
O140        C141   1.279       .  A
C141        C618   1.462       .  S
O142       Cr151   1.989       .  S
O142        C150   1.254   1_554  A
O143       Cr151   1.931       .  S
O143        C144   1.260       .  A
C144        O145   1.278       .  A
C144        C661   1.463       .  S
O145       Cr152   2.023       .  S
O146       Cr152   1.975       .  S
O146        C147   1.260       .  A
C147        O148   1.270       .  A
C147        C871   1.494       .  S
O148       Cr153   2.016       .  S
O149       Cr153   2.008   1_556  S
O149        C150   1.258       .  A
C150        C628   1.483       .  S
Cr151       O154   1.779       .  S
Cr152       O154   1.777       .  S
Cr153       O154   1.777       .  S
O155       Cr173   1.925   1_565  S
O155        C163   1.260       .  A
O156       Cr173   1.990   1_565  S
O156        C157   1.255       .  A
C157        O158   1.258       .  A
C157        C588   1.477       .  S
O158       Cr174   2.002   1_565  S
O159       Cr174   2.005   1_565  S
O159        C160   1.268       .  A
C160        O161   1.258       .  A
C160        C821   1.488       .  S
O161       Cr175   1.973       .  S
O162       Cr175   2.026       .  S
O162        C163   1.278       .  A
C163        C598   1.461       .  S
O164       Cr173   1.987       .  S
O164        C172   1.253       .  A
O165       Cr173   1.931       .  S
O165        C166   1.260       .  A
C166        O167   1.276       .  A
C166        C701   1.458       .  S
O167       Cr174   2.017       .  S
O168       Cr174   1.969       .  S
O168        C169   1.259       .  A
C169        O170   1.271       .  A
C169        C608   1.492       .  S
O170       Cr175   2.021   1_545  S
O171       Cr175   2.010   1_545  S
O171        C172   1.259       .  A
C172        C631   1.481       .  S
Cr173       O176   1.778   1_545  S
Cr174       O176   1.774   1_545  S
Cr175       O176   1.776       .  S
O177       Cr195   1.936       .  S
O177        C185   1.262       .  A
O178       Cr195   1.993       .  S
O178        C179   1.255       .  A
C179        O180   1.256       .  A
C179        C591   1.477       .  S
O180       Cr196   2.000       .  S
O181       Cr196   2.006       .  S
O181        C182   1.267       .  A
C182        O183   1.260       .  A
C182        C578   1.491       .  S
O183       Cr197   1.977       .  S
O184       Cr197   2.025       .  S
O184        C185   1.279       .  A
C185        C558   1.465       .  S
O186       Cr195   1.990       .  S
O186        C194   1.254       .  A
O187       Cr195   1.941       .  S
O187        C188   1.262       .  A
C188        O189   1.277       .  A
C188        C571   1.464       .  S
O189       Cr196   2.017       .  S
O190       Cr196   1.970       .  S
O190        C191   1.259       .  A
C191        O192   1.270       .  A
C191        C921   1.492       .  S
O192       Cr197   2.016       .  S
O193       Cr197   2.011       .  S
O193        C194   1.259       .  A
C194        C641   1.486       .  S
Cr195       O198   1.781       .  S
Cr196       O198   1.777       .  S
Cr197       O198   1.777       .  S
O199       Cr217   1.958       .  S
O199        C207   1.260       .  A
O200       Cr217   1.992       .  S
O200        C201   1.264       .  A
C201        O202   1.267       .  A
C201        C771   1.477       .  S
O202       Cr218   1.998       .  S
O203       Cr218   2.007   1_554  S
O203        C204   1.262       .  A
C204        O205   1.258   1_554  A
C204        C528   1.495       .  S
O205       Cr219   1.993       .  S
O206       Cr219   1.998       .  S
O206        C207   1.268       .  A
C207        C791   1.470       .  S
O208       Cr217   2.011       .  S
O208        C216   1.263       .  A
O209       Cr217   2.003       .  S
O209        C210   1.270       .  A
C210        O211   1.266       .  A
C210        C551   1.484       .  S
O211       Cr218   1.998       .  S
O212       Cr218   1.950       .  S
O212        C213   1.260       .  A
C213        O214   1.267       .  A
C213        C621   1.464       .  S
O214       Cr219   1.996       .  S
O215       Cr219   1.990       .  S
O215        C216   1.256       .  A
C216        C538   1.495       .  S
Cr217       O220   1.775       .  S
Cr218       O220   1.773       .  S
Cr219       O220   1.781       .  S
O221       Cr239   2.013       .  S
O221        C229   1.275       .  A
O222       Cr239   1.981       .  S
O222        C223   1.260       .  A
C223        O224   1.268       .  A
C223        C518   1.491       .  S
O224       Cr240   2.006   1_565  S
O225       Cr240   2.007   1_565  S
O225        C226   1.258       .  A
C226        O227   1.255       .  A
C226        C531   1.486       .  S
O227       Cr241   1.993       .  S
O228       Cr241   1.940       .  S
O228        C229   1.262       .  A
C229        C901   1.462       .  S
O230       Cr239   2.012   1_545  S
O230        C238   1.261       .  A
O231       Cr239   2.012   1_545  S
O231        C232   1.268       .  A
C232        O233   1.260       .  A
C232        C691   1.494       .  S
O233       Cr240   1.978       .  S
O234       Cr240   2.017       .  S
O234        C235   1.277       .  A
C235        O236   1.262       .  A
C235        C498   1.463       .  S
O236       Cr241   1.939   1_545  S
O237       Cr241   1.994   1_545  S
O237        C238   1.256       .  A
C238        C508   1.487       .  S
Cr239       O242   1.780   1_565  S
Cr240       O242   1.778       .  S
Cr241       O242   1.779   1_565  S
O243       Cr261   2.021       .  S
O243        C251   1.278       .  A
O244       Cr261   1.971       .  S
O244        C245   1.260       .  A
C245        O246   1.268       .  A
C245        C731   1.488       .  S
O246       Cr262   2.008       .  S
O247       Cr262   2.010       .  S
O247        C248   1.258       .  A
C248        O249   1.254       .  A
C248        C541   1.487       .  S
O249       Cr263   1.990       .  S
O250       Cr263   1.937       .  S
O250        C251   1.262       .  A
C251        C568   1.464       .  S
O252       Cr261   2.007       .  S
O252        C260   1.258       .  A
O253       Cr261   2.011       .  S
O253        C254   1.268       .  A
C254        O255   1.261       .  A
C254        C488   1.495       .  S
O255       Cr262   1.983       .  S
O256       Cr262   2.018       .  S
O256        C257   1.278       .  A
C257        O258   1.261       .  A
C257        C478   1.458       .  S
O258       Cr263   1.928       .  S
O259       Cr263   1.996       .  S
O259        C260   1.255       .  A
C260        C511   1.485       .  S
Cr261       O264   1.777       .  S
Cr262       O264   1.781       .  S
Cr263       O264   1.780       .  S
O265       Cr283   1.934       .  S
O265        C273   1.261       .  A
O266       Cr283   1.985       .  S
O266        C267   1.253       .  A
C267        O268   1.256       .  A
C267        C458   1.475       .  S
O268       Cr284   2.002       .  S
O269       Cr284   2.009       .  S
O269        C270   1.268       .  A
C270        O271   1.261       .  A
C270        C931   1.494       .  S
O271       Cr285   1.982       .  S
O272       Cr285   2.016       .  S
O272        C273   1.277       .  A
C273        C671   1.460       .  S
O274       Cr283   1.989       .  S
O274        C282   1.254       .  A
O275       Cr283   1.931       .  S
O275        C276   1.261       .  A
C276        O277   1.278       .  A
C276        C448   1.461       .  S
O277       Cr284   2.021       .  S
O278       Cr284   1.977       .  S
O278        C279   1.261       .  A
C279        O280   1.268       .  A
C279        C581   1.490       .  S
O280       Cr285   2.008       .  S
O281       Cr285   2.008       .  S
O281        C282   1.259       .  A
C282        C468   1.482       .  S
Cr283       O286   1.781       .  S
Cr284       O286   1.776       .  S
Cr285       O286   1.775       .  S
O287       Cr305   1.936       .  S
O287        C295   1.263       .  A
O288       Cr305   1.991       .  S
O288        C289   1.253       .  A
C289        O290   1.257       .  A
C289        C471   1.480       .  S
O290       Cr306   2.005       .  S
O291       Cr306   2.007       .  S
O291        C292   1.267       .  A
C292        O293   1.258       .  A
C292        C861   1.487       .  S
O293       Cr307   1.968       .  S
O294       Cr307   2.027       .  S
O294        C295   1.280       .  A
C295        C438   1.464       .  S
O296       Cr305   1.988       .  S
O296        C304   1.252   1_554  A
O297       Cr305   1.941       .  S
O297        C298   1.263       .  A
C298        O299   1.278       .  A
C298        C501   1.464       .  S
O299       Cr306   2.019       .  S
O300       Cr306   1.968       .  S
O300        C301   1.259       .  A
C301        O302   1.270       .  A
C301        C651   1.491       .  S
O302       Cr307   2.015       .  S
O303       Cr307   2.008   1_556  S
O303        C304   1.257       .  A
C304        C428   1.483       .  S
Cr305       O308   1.779       .  S
Cr306       O308   1.776       .  S
Cr307       O308   1.778       .  S
O309       Cr327   1.930       .  S
O309        C317   1.260       .  A
O310       Cr327   1.991       .  S
O310        C311   1.253       .  A
C311        O312   1.257       .  A
C311        C431   1.481       .  S
O312       Cr328   2.005       .  S
O313       Cr328   2.005       .  S
O313        C314   1.269       .  A
C314        O315   1.259       .  A
C314        C811   1.486       .  S
O315       Cr329   1.972       .  S
O316       Cr329   2.018       .  S
O316        C317   1.277       .  A
C317        C481   1.457       .  S
O318       Cr327   1.987   1_455  S
O318        C326   1.254       .  A
O319       Cr327   1.922   1_455  S
O319        C320   1.259       .  A
C320        O321   1.277       .  A
C320        C761   1.455       .  S
O321       Cr328   2.020   1_455  S
O322       Cr328   1.970   1_455  S
O322        C323   1.258       .  A
C323        O324   1.268       .  A
C323        C611   1.491       .  S
O324       Cr329   2.016   1_455  S
O325       Cr329   2.002   1_455  S
O325        C326   1.258       .  A
C326        C461   1.474       .  S
Cr327       O330   1.779       .  S
Cr328       O330   1.774       .  S
Cr329       O330   1.777       .  S
O331       Cr349   1.957       .  S
O331        C339   1.261       .  A
O332       Cr349   1.993       .  S
O332        C333   1.264       .  A
C333        O334   1.269       .  A
C333        C781   1.481       .  S
O334       Cr350   2.003       .  S
O335       Cr350   2.005       .  S
O335        C336   1.261       .  A
C336        O337   1.256       .  A
C336        C418   1.492       .  S
O337       Cr351   1.989       .  S
O338       Cr351   1.992       .  S
O338        C339   1.266       .  A
C339        C441   1.464       .  S
O340       Cr349   2.008   1_554  S
O340        C348   1.261       .  A
O341       Cr349   2.002       .  S
O341        C342   1.269       .  A
C342        O343   1.265       .  A
C342        C548   1.484       .  S
O343       Cr350   1.997       .  S
O344       Cr350   1.951       .  S
O344        C345   1.261       .  A
C345        O346   1.266       .  A
C345        C601   1.463       .  S
O346       Cr351   1.994       .  S
O347       Cr351   1.989       .  S
O347        C348   1.258   1_556  A
C348        C408   1.496       .  S
Cr349       O352   1.776       .  S
Cr350       O352   1.778       .  S
Cr351       O352   1.783       .  S
O353       Cr371   1.958       .  S
O353        C361   1.262       .  A
O354       Cr371   1.997       .  S
O354        C355   1.266       .  A
C355        O356   1.269       .  A
C355        C521   1.488       .  S
O356       Cr372   2.005       .  S
O357       Cr372   2.006       .  S
O357        C358   1.261       .  A
C358        O359   1.257       .  A
C358        C398   1.497       .  S
O359       Cr373   1.996       .  S
O360       Cr373   1.989       .  S
O360        C361   1.265       .  A
C361        C831   1.463       .  S
O362       Cr371   2.006   1_455  S
O362        C370   1.261       .  A
O363       Cr371   2.007   1_455  S
O363        C364   1.269       .  A
C364        O365   1.264       .  A
C364        C681   1.487       .  S
O365       Cr372   1.993   1_455  S
O366       Cr372   1.957   1_455  S
O366        C367   1.262       .  A
C367        O368   1.267       .  A
C367        C561   1.464       .  S
O368       Cr373   1.994   1_455  S
O369       Cr373   1.993   1_455  S
O369        C370   1.258       .  A
C370        C411   1.498       .  S
Cr371       O374   1.780       .  S
Cr372       O374   1.779       .  S
Cr373       O374   1.787       .  S
O375       Cr393   2.021       .  S
O375        C383   1.277       .  A
O376       Cr393   1.969       .  S
O376        C377   1.259       .  A
C377        O378   1.268       .  A
C377        C721   1.487       .  S
O378       Cr394   2.007       .  S
O379       Cr394   2.014       .  S
O379        C380   1.261       .  A
C380        O381   1.256       .  A
C380        C401   1.491       .  S
O381       Cr395   1.994       .  S
O382       Cr395   1.938       .  S
O382        C383   1.262       .  A
C383        C798   1.463       .  S
O384       Cr393   2.007       .  S
O384        C392   1.258       .  A
O385       Cr393   2.012       .  S
O385        C386   1.269       .  A
C386        O387   1.262       .  A
C386        C491   1.496       .  S
O387       Cr394   1.983       .  S
O388       Cr394   2.011       .  S
O388        C389   1.275       .  A
C389        O390   1.261       .  A
C389        C451   1.460       .  S
O390       Cr395   1.939       .  S
O391       Cr395   1.990       .  S
O391        C392   1.255       .  A
C392        C421   1.484       .  S
Cr393       O396   1.777       .  S
Cr394       O396   1.778       .  S
Cr395       O396   1.778       .  S
C397        C398   1.407       .  A
C397        C402   1.401       .  A
C397        H403   1.083       .  S
C398        C399   1.411       .  A
C399        C400   1.411       .  A
C399        H404   1.083       .  S
C400        C401   1.407       .  A
C400        H405   1.083       .  S
C401        C402   1.406       .  A
C402        H406   1.084       .  S
C407        C408   1.407       .  A
C407        C412   1.404       .  A
C407        H413   1.083   1_554  S
C408        C409   1.409       .  A
C409        C410   1.405       .  A
C409        H414   1.083       .  S
C410        C411   1.408       .  A
C410        H415   1.083       .  S
C411        C412   1.409       .  A
C412        H416   1.083       .  S
C417        C418   1.406       .  A
C417        C422   1.398       .  A
C417        H423   1.083       .  S
C418        C419   1.410   1_455  A
C419        C420   1.409       .  A
C419        H424   1.083       .  S
C420        C421   1.405       .  A
C420        H425   1.083       .  S
C421        C422   1.405   1_655  A
C422        H426   1.084       .  S
C427        C428   1.404       .  A
C427        C432   1.406       .  A
C427        H433   1.083       .  S
C428        C429   1.408       .  A
C429        C430   1.403       .  A
C429        H434   1.083   1_556  S
C430        C431   1.402       .  A
C430        H435   1.083       .  S
C431        C432   1.408       .  A
C432        H436   1.083       .  S
C437        C438   1.404   1_455  A
C437        C442   1.388       .  A
C437        H443   1.083       .  S
C438        C439   1.402   1_554  A
C439        C440   1.396       .  A
C439        H444   1.083       .  S
C440        C441   1.405   1_655  A
C440        H445   1.083       .  S
C441        C442   1.401   1_556  A
C442        H446   1.083       .  S
C447        C448   1.406   1_655  A
C447        C452   1.386       .  A
C447        H453   1.083       .  S
C448        C449   1.400       .  A
C449        C450   1.389       .  A
C449        H454   1.083       .  S
C450        C451   1.406   1_455  A
C450        H455   1.083       .  S
C451        C452   1.399       .  A
C452        H456   1.083       .  S
C457        C458   1.407       .  A
C457        C462   1.402       .  A
C457        H463   1.083       .  S
C458        C459   1.401       .  A
C459        C460   1.401       .  A
C459        H464   1.083       .  S
C460        C461   1.406       .  A
C460        H465   1.084       .  S
C461        C462   1.402       .  A
C462        H466   1.083       .  S
C467        C468   1.403       .  A
C467        C472   1.404       .  A
C467        H473   1.083       .  S
C468        C469   1.408   1_455  A
C469        C470   1.404       .  A
C469        H474   1.083       .  S
C470        C471   1.402       .  A
C470        H475   1.083       .  S
C471        C472   1.407   1_655  A
C472        H476   1.083       .  S
C477        C478   1.399       .  A
C477        C482   1.388       .  A
C477        H483   1.083       .  S
C478        C479   1.406       .  A
C479        C480   1.386       .  A
C479        H484   1.083       .  S
C480        C481   1.398       .  A
C480        H485   1.083       .  S
C481        C482   1.406       .  A
C482        H486   1.083       .  S
C487        C488   1.405       .  A
C487        C492   1.404       .  A
C487        H493   1.083       .  S
C488        C489   1.411       .  A
C489        C490   1.404       .  A
C489        H494   1.083       .  S
C490        C491   1.406       .  A
C490        H495   1.083       .  S
C491        C492   1.411       .  A
C492        H496   1.083       .  S
C497        C498   1.401       .  A
C497        C502   1.390       .  A
C497        H503   1.083       .  S
C498        C499   1.406       .  A
C499        C500   1.390       .  A
C499        H504   1.083       .  S
C500        C501   1.401       .  A
C500        H505   1.083       .  S
C501        C502   1.406       .  A
C502        H506   1.083       .  S
C507        C508   1.404       .  A
C507        C512   1.407       .  A
C507        H513   1.083       .  S
C508        C509   1.408       .  A
C509        C510   1.405       .  A
C509        H514   1.083       .  S
C510        C511   1.403       .  A
C510        H515   1.083       .  S
C511        C512   1.408       .  A
C512        H516   1.083       .  S
C517        C518   1.412       .  A
C517        C522   1.406       .  A
C517        H523   1.083       .  S
C518        C519   1.403       .  A
C519        C520   1.397       .  A
C519        H524   1.083       .  S
C520        C521   1.410       .  A
C520        H525   1.083       .  S
C521        C522   1.404       .  A
C522        H526   1.083       .  S
C527        C528   1.411       .  A
C527        C532   1.410       .  A
C527        H533   1.083   1_554  S
C528        C529   1.407       .  A
C529        C530   1.399       .  A
C529        H534   1.083       .  S
C530        C531   1.404       .  A
C530        H535   1.084       .  S
C531        C532   1.406       .  A
C532        H536   1.083       .  S
C537        C538   1.406       .  A
C537        C542   1.399       .  A
C537        H543   1.083       .  S
C538        C539   1.411   1_565  A
C539        C540   1.410       .  A
C539        H544   1.083       .  S
C540        C541   1.406       .  A
C540        H545   1.083       .  S
C541        C542   1.405   1_545  A
C542        H546   1.084       .  S
C547        C548   1.401       .  A
C547        C552   1.401       .  A
C547        H553   1.083       .  S
C548        C549   1.411       .  A
C549        C550   1.402       .  A
C549        H554   1.083       .  S
C550        C551   1.401       .  A
C550        H555   1.083       .  S
C551        C552   1.411       .  A
C552        H556   1.083       .  S
C557        C558   1.402       .  A
C557        C562   1.395       .  A
C557        H563   1.083       .  S
C558        C559   1.404       .  A
C559        C560   1.388       .  A
C559        H564   1.083       .  S
C560        C561   1.401       .  A
C560        H565   1.083       .  S
C561        C562   1.405       .  A
C562        H566   1.083       .  S
C567        C568   1.401       .  A
C567        C572   1.390       .  A
C567        H573   1.083       .  S
C568        C569   1.406   1_545  A
C569        C570   1.389       .  A
C569        H574   1.083       .  S
C570        C571   1.400       .  A
C570        H575   1.083       .  S
C571        C572   1.406   1_565  A
C572        H576   1.083       .  S
C577        C578   1.410       .  A
C577        C582   1.402       .  A
C577        H583   1.083       .  S
C578        C579   1.405       .  A
C579        C580   1.402       .  A
C579        H584   1.083       .  S
C580        C581   1.410       .  A
C580        H585   1.083       .  S
C581        C582   1.404       .  A
C582        H586   1.083       .  S
C587        C588   1.402       .  A
C587        C592   1.403       .  A
C587        H593   1.083       .  S
C588        C589   1.407       .  A
C589        C590   1.402       .  A
C589        H594   1.083       .  S
C590        C591   1.402       .  A
C590        H595   1.083       .  S
C591        C592   1.406       .  A
C592        H596   1.083       .  S
C597        C598   1.402       .  A
C597        C602   1.397       .  A
C597        H603   1.083       .  S
C598        C599   1.403       .  A
C599        C600   1.384       .  A
C599        H604   1.084       .  S
C600        C601   1.400       .  A
C600        H605   1.083       .  S
C601        C602   1.406       .  A
C602        H606   1.083       .  S
C607        C608   1.412       .  A
C607        C612   1.403       .  A
C607        H613   1.083       .  S
C608        C609   1.403       .  A
C609        C610   1.402       .  A
C609        H614   1.083       .  S
C610        C611   1.411       .  A
C610        H615   1.083       .  S
C611        C612   1.403       .  A
C612        H616   1.083       .  S
C617        C618   1.402   1_556  A
C617        C622   1.397       .  A
C617        H623   1.083       .  S
C618        C619   1.403   1_545  A
C619        C620   1.385       .  A
C619        H624   1.084       .  S
C620        C621   1.401   1_554  A
C620        H625   1.083       .  S
C621        C622   1.406   1_565  A
C622        H626   1.083       .  S
C627        C628   1.403       .  A
C627        C632   1.405       .  A
C627        H633   1.083       .  S
C628        C629   1.408       .  A
C629        C630   1.403       .  A
C629        H634   1.083   1_556  S
C630        C631   1.402       .  A
C630        H635   1.083       .  S
C631        C632   1.408       .  A
C632        H636   1.083       .  S
C637        C638   1.403       .  A
C637        C642   1.405       .  A
C637        H643   1.083       .  S
C638        C639   1.408   1_545  A
C639        C640   1.406       .  A
C639        H644   1.083       .  S
C640        C641   1.403       .  A
C640        H645   1.083       .  S
C641        C642   1.409   1_565  A
C642        H646   1.083       .  S
C647        C648   1.411       .  A
C647        C652   1.401       .  A
C647        H653   1.083       .  S
C648        C649   1.402       .  A
C649        C650   1.401       .  A
C649        H654   1.083       .  S
C650        C651   1.412       .  A
C650        H655   1.083       .  S
C651        C652   1.403       .  A
C652        H656   1.083       .  S
C657        C658   1.399       .  A
C657        C662   1.388       .  A
C657        H663   1.083       .  S
C658        C659   1.407       .  A
C659        C660   1.389       .  A
C659        H664   1.083       .  S
C660        C661   1.399       .  A
C660        H665   1.083       .  S
C661        C662   1.407       .  A
C662        H666   1.083       .  S
C667        C668   1.400       .  A
C667        C672   1.389       .  A
C667        H673   1.083       .  S
C668        C669   1.405       .  A
C669        C670   1.388       .  A
C669        H674   1.083       .  S
C670        C671   1.399       .  A
C670        H675   1.083       .  S
C671        C672   1.406       .  A
C672        H676   1.083       .  S
C677        C678   1.413       .  A
C677        C682   1.406   1_545  A
C677        H683   1.083       .  S
C678        C679   1.402       .  A
C679        C680   1.397   1_545  A
C679        H684   1.083       .  S
C680        C681   1.410       .  A
C680        H685   1.083       .  S
C681        C682   1.403       .  A
C682        H686   1.083       .  S
C687        C688   1.411       .  A
C687        C692   1.403   1_455  A
C687        H693   1.083       .  S
C688        C689   1.405       .  A
C689        C690   1.404   1_455  A
C689        H694   1.083       .  S
C690        C691   1.411       .  A
C690        H695   1.083       .  S
C691        C692   1.405       .  A
C692        H696   1.083       .  S
C697        C698   1.406       .  A
C697        C702   1.387       .  A
C697        H703   1.083       .  S
C698        C699   1.399       .  A
C699        C700   1.387       .  A
C699        H704   1.083       .  S
C700        C701   1.406       .  A
C700        H705   1.083       .  S
C701        C702   1.399       .  A
C702        H706   1.083       .  S
C707        C708   1.403       .  A
C707        C712   1.403       .  A
C707        H713   1.083       .  S
C708        C709   1.407       .  A
C709        C710   1.406       .  A
C709        H714   1.083       .  S
C710        C711   1.404       .  A
C710        H715   1.083       .  S
C711        C712   1.408       .  A
C712        H716   1.083       .  S
C717        C718   1.410       .  A
C717        C722   1.400       .  A
C717        H723   1.083       .  S
C718        C719   1.403       .  A
C719        C720   1.401       .  A
C719        H724   1.083       .  S
C720        C721   1.411       .  A
C720        H725   1.083       .  S
C721        C722   1.403       .  A
C722        H726   1.083       .  S
C727        C728   1.412       .  A
C727        C732   1.402       .  A
C727        H733   1.083       .  S
C728        C729   1.403       .  A
C729        C730   1.400       .  A
C729        H734   1.083       .  S
C730        C731   1.410       .  A
C730        H735   1.083       .  S
C731        C732   1.404       .  A
C732        H736   1.083       .  S
C737        C738   1.405       .  A
C737        C742   1.408       .  A
C737        H743   1.083       .  S
C738        C739   1.403       .  A
C739        C740   1.399       .  A
C739        H744   1.084       .  S
C740        C741   1.408       .  A
C740        H745   1.083       .  S
C741        C742   1.410       .  A
C742        H746   1.083       .  S
C747        C748   1.405       .  A
C747        C752   1.408       .  A
C747        H753   1.083       .  S
C748        C749   1.404       .  A
C749        C750   1.400       .  A
C749        H754   1.084       .  S
C750        C751   1.407       .  A
C750        H755   1.083       .  S
C751        C752   1.411       .  A
C752        H756   1.083   1_554  S
C757        C758   1.406       .  A
C757        C762   1.395       .  A
C757        H763   1.083       .  S
C758        C759   1.400       .  A
C759        C760   1.381       .  A
C759        H764   1.083       .  S
C760        C761   1.402       .  A
C760        H765   1.084       .  S
C761        C762   1.401       .  A
C762        H766   1.083       .  S
C767        C768   1.400       .  A
C767        C772   1.399       .  A
C767        H773   1.083       .  S
C768        C769   1.410       .  A
C769        C770   1.399       .  A
C769        H774   1.083       .  S
C770        C771   1.400       .  A
C770        H775   1.083       .  S
C771        C772   1.410       .  A
C772        H776   1.083       .  S
C777        C778   1.400       .  A
C777        C782   1.401       .  A
C777        H783   1.083       .  S
C778        C779   1.412       .  A
C779        C780   1.401       .  A
C779        H784   1.083       .  S
C780        C781   1.400       .  A
C780        H785   1.083       .  S
C781        C782   1.411       .  A
C782        H786   1.083       .  S
C787        C788   1.406       .  A
C787        C792   1.393       .  A
C787        H793   1.083       .  S
C788        C789   1.403       .  A
C789        C790   1.392       .  A
C789        H794   1.083       .  S
C790        C791   1.406       .  A
C790        H795   1.083       .  S
C791        C792   1.403       .  A
C792        H796   1.083       .  S
C797        C798   1.404       .  A
C797        C802   1.387       .  A
C797        H803   1.083       .  S
C798        C799   1.402       .  A
C799        C800   1.394       .  A
C799        H804   1.083       .  S
C800        C801   1.404       .  A
C800        H805   1.083       .  S
C801        C802   1.401       .  A
C802        H806   1.083       .  S
C807        C808   1.403       .  A
C807        C812   1.404   1_565  A
C807        H813   1.083       .  S
C808        C809   1.408       .  A
C809        C810   1.395   1_565  A
C809        H814   1.083       .  S
C810        C811   1.402       .  A
C810        H815   1.083       .  S
C811        C812   1.412       .  A
C812        H816   1.083       .  S
C817        C818   1.411       .  A
C817        C822   1.395   1_655  A
C817        H823   1.083       .  S
C818        C819   1.403       .  A
C819        C820   1.406   1_655  A
C819        H824   1.083       .  S
C820        C821   1.413       .  A
C820        H825   1.083       .  S
C821        C822   1.401       .  A
C822        H826   1.083       .  S
C827        C828   1.402       .  A
C827        C832   1.396       .  A
C827        H833   1.083       .  S
C828        C829   1.406       .  A
C829        C830   1.387       .  A
C829        H834   1.083       .  S
C830        C831   1.399       .  A
C830        H835   1.083       .  S
C831        C832   1.406       .  A
C832        H836   1.083       .  S
C837        C838   1.406       .  A
C837        C842   1.411       .  A
C837        H843   1.083       .  S
C838        C839   1.406       .  A
C839        C840   1.402       .  A
C839        H844   1.084   1_556  S
C840        C841   1.407       .  A
C840        H845   1.083       .  S
C841        C842   1.412       .  A
C842        H846   1.083       .  S
C847        C848   1.400   1_554  A
C847        C852   1.388       .  A
C847        H853   1.083       .  S
C848        C849   1.405       .  A
C849        C850   1.395       .  A
C849        H854   1.083       .  S
C850        C851   1.402   1_556  A
C850        H855   1.083       .  S
C851        C852   1.405       .  A
C852        H856   1.083       .  S
C857        C858   1.411       .  A
C857        C862   1.400       .  A
C857        H863   1.083       .  S
C858        C859   1.403       .  A
C859        C860   1.401       .  A
C859        H864   1.083       .  S
C860        C861   1.411       .  A
C860        H865   1.083       .  S
C861        C862   1.403       .  A
C862        H866   1.083       .  S
C867        C868   1.411       .  A
C867        C872   1.401       .  A
C867        H873   1.083       .  S
C868        C869   1.404       .  A
C869        C870   1.405       .  A
C869        H874   1.083       .  S
C870        C871   1.413       .  A
C870        H875   1.083       .  S
C871        C872   1.403       .  A
C872        H876   1.083       .  S
C877        C878   1.408       .  A
C877        C882   1.405       .  A
C877        H883   1.083       .  S
C878        C879   1.404       .  A
C879        C880   1.406       .  A
C879        H884   1.083       .  S
C880        C881   1.408       .  A
C880        H885   1.083       .  S
C881        C882   1.403       .  A
C882        H886   1.083       .  S
C887        C888   1.405       .  A
C887        C892   1.401       .  A
C887        H893   1.084       .  S
C888        C889   1.405       .  A
C889        C890   1.409       .  A
C889        H894   1.083       .  S
C890        C891   1.411       .  A
C890        H895   1.083       .  S
C891        C892   1.408       .  A
C892        H896   1.083       .  S
C897        C898   1.400       .  A
C897        C902   1.388       .  A
C897        H903   1.083       .  S
C898        C899   1.406       .  A
C899        C900   1.390       .  A
C899        H904   1.083       .  S
C900        C901   1.401       .  A
C900        H905   1.083       .  S
C901        C902   1.405       .  A
C902        H906   1.083       .  S
C907        C908   1.399       .  A
C907        C912   1.389       .  A
C907        H913   1.083       .  S
C908        C909   1.407       .  A
C909        C910   1.388       .  A
C909        H914   1.083       .  S
C910        C911   1.399       .  A
C910        H915   1.083       .  S
C911        C912   1.407       .  A
C912        H916   1.083       .  S
C917        C918   1.404       .  A
C917        C922   1.402       .  A
C917        H923   1.083       .  S
C918        C919   1.411       .  A
C919        C920   1.402       .  A
C919        H924   1.083       .  S
C920        C921   1.404       .  A
C920        H925   1.083       .  S
C921        C922   1.412       .  A
C922        H926   1.083       .  S
C927        C928   1.405       .  A
C927        C932   1.404       .  A
C927        H933   1.083       .  S
C928        C929   1.411       .  A
C929        C930   1.403       .  A
C929        H934   1.083       .  S
C930        C931   1.405       .  A
C930        H935   1.083       .  S
C931        C932   1.411       .  A
C932        H936   1.083       .  S
