geometry optimzed in LAMMPS
_audit_creation_date              2020-12-01 
_audit_creation_method            'lammps2cif' 
_symmetry_space_group_name_H-M    'P1' 
_symmetry_Int_Tables_number       1 
_symmetry_cell_setting            triclinic 
loop_ 
_symmetry_equiv_pos_as_xyz 
  x,y,z 
_cell_length_a                    38.76142261 
_cell_length_b                    39.09527255567581 
_cell_length_c                    39.04683710460786 
_cell_angle_alpha                 90.27042003013113 
_cell_angle_beta                  89.72980676685698 
_cell_angle_gamma                 89.94449368678505 
loop_ 
_atom_site_label 
_atom_site_type_symbol 
_atom_site_fract_x 
_atom_site_fract_y 
_atom_site_fract_z 
_atom_site_charge 
In1        In  0.64951584  0.19188752  0.50297110     1.36900
C2          C  0.60482800  0.20004074  0.55433083     0.77500
O3          O  0.68682942  0.22618825  0.53127055    -0.60900
O4          O  0.68501409  0.22901952  0.47706990    -0.51900
C5          C  0.68073511  0.13121593  0.50262605     0.70200
O6          O  0.65118666  0.13611739  0.51531339    -0.46700
C7          C  0.60808202  0.19064362  0.44886606     0.74900
O8          O  0.63134802  0.18161713  0.55676705    -0.58600
O9          O  0.61693418  0.21792933  0.46359677    -0.48700
O10         O  0.60244596  0.21624994  0.52669177    -0.55000
C11         C  0.69813640  0.24007305  0.50438756     0.85100
O12         O  0.69460088  0.15766924  0.49029484    -0.56900
O13         O  0.62181584  0.16398983  0.46053413    -0.60200
In14       In  0.52420841  0.19325109  0.62285476     1.36900
C15         C  0.47007324  0.19688132  0.58157896     0.77500
O16         O  0.49883150  0.22871560  0.66043268    -0.60900
O17         O  0.55353676  0.22692256  0.65957205    -0.51900
C18         C  0.52284495  0.13085499  0.65013189     0.70200
O19         O  0.53509829  0.13689044  0.62083253    -0.46700
C20         C  0.57743117  0.20020653  0.58022047     0.74900
O21         O  0.47876916  0.16970939  0.59638035    -0.58600
O22         O  0.54909244  0.21521872  0.57572051    -0.48700
O23         O  0.48766500  0.22278623  0.58947544    -0.55000
C24         C  0.52669581  0.23994835  0.67242140     0.85100
O25         O  0.51115967  0.15690840  0.66551772    -0.56900
O26         O  0.57931142  0.18324636  0.60749232    -0.60200
In27       In  0.40392394  0.19465295  0.49973450     1.36900
C28         C  0.44828633  0.19853861  0.44723637     0.77500
O29         O  0.37040964  0.23336787  0.47341443    -0.60900
O30         O  0.36583305  0.22803249  0.52738312    -0.51900
C31         C  0.37251546  0.13385695  0.49876007     0.70200
O32         O  0.40479754  0.13738893  0.49687111    -0.46700
C33         C  0.44389763  0.19734409  0.55480811     0.74900
O34         O  0.42098598  0.18117836  0.44563243    -0.58600
O35         O  0.43851304  0.22306991  0.53630989    -0.48700
O36         O  0.45156298  0.21554442  0.47440860    -0.55000
C37         C  0.35581336  0.24301055  0.50073527     0.85100
O38         O  0.35613857  0.16168125  0.50123083    -0.56900
O39         O  0.42714358  0.17104504  0.54655276    -0.60200
In40       In  0.52913682  0.18924012  0.37866956     1.36900
C41         C  0.58194268  0.18996679  0.42203788     0.77500
O42         O  0.55589236  0.22391459  0.34111875    -0.60900
O43         O  0.50138798  0.22660303  0.34446301    -0.51900
C44         C  0.52960128  0.12889886  0.34652931     0.70200
O45         O  0.51395376  0.13403001  0.37443938    -0.46700
C46         C  0.47561467  0.19716248  0.42115228     0.74900
O47         O  0.57049965  0.16265510  0.40924045    -0.58600
O48         O  0.50395535  0.21230735  0.42514348    -0.48700
O49         O  0.56753540  0.21674791  0.41154244    -0.55000
C50         C  0.52858609  0.23776587  0.33071628     0.85100
O51         O  0.54530634  0.15471945  0.33512041    -0.56900
O52         O  0.47375252  0.17918879  0.39432792    -0.60200
In53       In  0.28728488  0.56117038  0.50632179     1.36900
C54         C  0.28913536  0.51937759  0.45239714     0.77500
O55         O  0.32388229  0.59603806  0.47918241    -0.60900
O56         O  0.32081816  0.59995915  0.53333887    -0.51900
C57         C  0.22567815  0.59020192  0.50533737     0.70200
O58         O  0.25282422  0.60578614  0.49666587    -0.46700
C59         C  0.29144650  0.51999051  0.55992594     0.74900
O60         O  0.26278151  0.53647441  0.46040771    -0.58600
O61         O  0.31034754  0.51668526  0.53383670    -0.48700
O62         O  0.31511172  0.52479549  0.47087717    -0.55000
C63         C  0.33421943  0.61072671  0.50595983     0.85100
O64         O  0.23020490  0.55955855  0.51413396    -0.56900
O65         O  0.27251137  0.54614473  0.56007614    -0.60200
In66       In  0.27941946  0.44046235  0.62730846     1.36900
C67         C  0.28007006  0.38743003  0.58383142     0.77500
O68         O  0.26859560  0.49482828  0.61103532    -0.60900
O69         O  0.30616900  0.46616336  0.58361158    -0.51900
C70         C  0.21899170  0.43909699  0.66099731     0.70200
O71         O  0.22212549  0.44821462  0.63024980    -0.46700
C72         C  0.32844580  0.44045486  0.67434295     0.74900
O73         O  0.25273051  0.40207635  0.59331951    -0.58600
O74         O  0.31695338  0.46781262  0.66165491    -0.48700
O75         O  0.30700290  0.39878913  0.59763964    -0.55000
C76         C  0.28930036  0.49351796  0.58609074     0.85100
O77         O  0.24706666  0.43073932  0.67487189    -0.56900
O78         O  0.31447640  0.41343950  0.66340242    -0.60200
In79       In  0.28132661  0.31809898  0.50384026     1.36900
C80         C  0.28056375  0.36084907  0.55726738     0.77500
O81         O  0.31424601  0.27841943  0.52897722    -0.60900
O82         O  0.31959116  0.28528951  0.47528635    -0.51900
C83         C  0.22051152  0.28675093  0.50194937     0.70200
O84         O  0.22585344  0.31541598  0.48837865    -0.46700
C85         C  0.29052882  0.36033985  0.45199011     0.74900
O86         O  0.25351085  0.35034334  0.54302142    -0.58600
O87         O  0.30583584  0.36397199  0.48014141    -0.48700
O88         O  0.30805035  0.34816809  0.54545625    -0.55000
C89         C  0.32921743  0.26953994  0.50164054     0.85100
O90         O  0.24643821  0.27412926  0.51667735    -0.56900
O91         O  0.27245017  0.33370557  0.44936872    -0.60200
In92       In  0.28524579  0.43959283  0.38383819     1.36900
C93         C  0.29118977  0.38677360  0.42581306     0.77500
O94         O  0.32015301  0.41127069  0.34745897    -0.60900
O95         O  0.32112361  0.46560233  0.34689949    -0.51900
C96         C  0.22303069  0.44131948  0.35518917     0.70200
O97         O  0.22752655  0.43447196  0.38636483    -0.46700
C98         C  0.28866695  0.49324715  0.42556388     0.74900
O99         O  0.27269070  0.38562318  0.39942221    -0.58600
O100        O  0.31474176  0.47553187  0.41790775    -0.48700
O101        O  0.30823540  0.41384869  0.42945370    -0.55000
C102        C  0.33294719  0.43802144  0.33480096     0.85100
O103        O  0.25050422  0.44717091  0.33874478    -0.56900
O104        O  0.26145678  0.48503516  0.41014135    -0.60200
In105      In  0.52892901  0.55982586  0.25732080     1.36900
C106        C  0.58188023  0.51784303  0.26450464     0.77500
O107        O  0.55749699  0.59584798  0.29257277    -0.60900
O108        O  0.50286609  0.59833439  0.29129906    -0.51900
C109        C  0.52736729  0.58960782  0.19645626     0.70200
O110        O  0.51004068  0.60050377  0.22166668    -0.46700
C111        C  0.47681002  0.51555571  0.25845621     0.74900
O112        O  0.58422875  0.54499177  0.24735158    -0.58600
O113        O  0.48946495  0.52818578  0.28534281    -0.48700
O114        O  0.55374241  0.51394088  0.28023499    -0.55000
C115        C  0.53039965  0.60984758  0.30377788     0.85100
O116        O  0.54513293  0.56338662  0.20252265    -0.56900
O117        O  0.48977097  0.52656494  0.23103380    -0.60200
In118      In  0.65043994  0.43794213  0.25585279     1.36900
C119        C  0.60838007  0.38378606  0.25671350     0.77500
O120        O  0.68812886  0.41195991  0.29068538    -0.60900
O121        O  0.68391684  0.46595516  0.29417165    -0.51900
C122        C  0.68193935  0.43665440  0.19467813     0.70200
O123        O  0.65178168  0.44791887  0.19914830    -0.46700
C124        C  0.60809944  0.49099371  0.26370683     0.74900
O125        O  0.61997630  0.39644005  0.22943728    -0.58600
O126        O  0.60313528  0.46254802  0.27778263    -0.48700
O127        O  0.61929645  0.39784974  0.28362225    -0.55000
C128        C  0.69797977  0.43908669  0.30515226     0.85100
O129        O  0.69621643  0.42641450  0.22173537    -0.56900
O130        O  0.63582908  0.49322357  0.24688061    -0.60200
In131      In  0.40767714  0.43551965  0.25952657     1.36900
C132        C  0.45057889  0.48868422  0.25898940     0.77500
O133        O  0.37139921  0.46383598  0.29454887    -0.60900
O134        O  0.37231950  0.40954763  0.29695313    -0.51900
C135        C  0.37603381  0.43484493  0.19906016     0.70200
O136        O  0.40657188  0.42468788  0.20321481    -0.46700
C137        C  0.44964110  0.38243850  0.26710604     0.74900
O138        O  0.43786942  0.47626315  0.23206548    -0.58600
O139        O  0.45483996  0.41100611  0.28104183    -0.48700
O140        O  0.44025057  0.47497799  0.28629018    -0.55000
C141        C  0.35954532  0.43711064  0.30812068     0.85100
O142        O  0.36149606  0.44536637  0.22609422    -0.56900
O143        O  0.42144559  0.37988786  0.25139866    -0.60200
In144      In  0.52888613  0.31358292  0.25711558     1.36900
C145        C  0.47618380  0.35592014  0.26644271     0.77500
O146        O  0.50171973  0.28056442  0.29606888    -0.60900
O147        O  0.55560412  0.27390754  0.28917829    -0.51900
C148        C  0.52668164  0.28369512  0.19551877     0.70200
O149        O  0.54055745  0.26991373  0.22114815    -0.46700
C150        C  0.58236163  0.35659104  0.25700740     0.74900
O151        O  0.47287083  0.32791965  0.25064260    -0.58600
O152        O  0.56883699  0.34561317  0.28419908    -0.48700
O153        O  0.50544979  0.36090121  0.27931176    -0.55000
C154        C  0.52860950  0.26473821  0.30470019     0.85100
O155        O  0.51386669  0.31273884  0.20154729    -0.56900
O156        O  0.57008790  0.34397163  0.22998034    -0.60200
In157      In  0.65006696  0.68026087  0.49961172     1.36900
C158        C  0.60858547  0.67626396  0.55366140     0.77500
O159        O  0.63456441  0.69356799  0.44546830    -0.60900
O160        O  0.60304740  0.65943454  0.47355459    -0.51900
C161        C  0.67948951  0.74197286  0.50084459     0.70200
O162        O  0.64739060  0.73764699  0.49807135    -0.46700
C163        C  0.69893441  0.63234708  0.50023460     0.74900
O164        O  0.62697387  0.70214069  0.54779672    -0.58600
O165        O  0.68650242  0.64382764  0.47280923    -0.48700
O166        O  0.61304704  0.65162572  0.53324359    -0.55000
C167        C  0.60724539  0.67620094  0.44649775     0.85100
O168        O  0.69653232  0.71456472  0.50313055    -0.56900
O169        O  0.68631533  0.64516762  0.52715008    -0.60200
In170      In  0.52875295  0.67782076  0.62337554     1.36900
C171        C  0.58209090  0.67590354  0.58035019     0.77500
O172        O  0.55490001  0.64354462  0.66131772    -0.60900
O173        O  0.50029627  0.64325879  0.66020686    -0.51900
C174        C  0.52968932  0.74025412  0.65057264     0.70200
O175        O  0.51473238  0.73340574  0.62280738    -0.46700
C176        C  0.47593843  0.67254064  0.58103128     0.74900
O177        O  0.57420899  0.70220828  0.59730943    -0.58600
O178        O  0.50320983  0.65539189  0.57718784    -0.48700
O179        O  0.56381966  0.65002644  0.58653193    -0.55000
C180        C  0.52737483  0.63166967  0.67358081     0.85100
O181        O  0.54399184  0.71493028  0.66455795    -0.56900
O182        O  0.47430644  0.68998936  0.60822379    -0.60200
In183      In  0.52906836  0.68655178  0.37655166     1.36900
C184        C  0.47678709  0.68730998  0.42080591     0.77500
O185        O  0.50303040  0.65142310  0.33945639    -0.60900
O186        O  0.55757599  0.64838185  0.34329645    -0.51900
C187        C  0.52779260  0.74629537  0.34349534     0.70200
O188        O  0.51164277  0.72035434  0.33300108    -0.46700
C189        C  0.58087678  0.67739513  0.41984770     0.74900
O190        O  0.49297167  0.71393190  0.41249894    -0.58600
O191        O  0.55165236  0.66401428  0.42402339    -0.48700
O192        O  0.48579392  0.66064219  0.40491010    -0.55000
C193        C  0.53046955  0.63725212  0.32943378     0.85100
O194        O  0.54473615  0.74134230  0.37042614    -0.56900
O195        O  0.58457557  0.69363314  0.39223948    -0.60200
In196      In  0.40820239  0.68619815  0.50177183     1.36900
C197        C  0.44997189  0.67482285  0.55418457     0.77500
O198        O  0.37023638  0.65373037  0.53117401    -0.60900
O199        O  0.37364910  0.64753160  0.47721669    -0.51900
C200        C  0.37683067  0.74702350  0.49822066     0.70200
O201        O  0.40393477  0.74195408  0.51509619    -0.46700
C202        C  0.45126034  0.68704701  0.44846124     0.74900
O203        O  0.42385179  0.69386234  0.55664479    -0.58600
O204        O  0.43549234  0.66041269  0.45753880    -0.48700
O205        O  0.45366997  0.66018413  0.52562898    -0.55000
C206        C  0.35994129  0.63804971  0.50487657     0.85100
O207        O  0.36538655  0.72067395  0.48334991    -0.56900
O208        O  0.44466285  0.71320354  0.46619807    -0.60200
In209      In  0.27589232  0.93929232  0.49397895     1.36900
C210        C  0.24485203  0.94041457  0.55518112     0.77500
O211        O  0.27625458  0.88191890  0.48967628    -0.60900
O212        O  0.32394194  0.90690199  0.49824439    -0.51900
C213        C  0.24472020  0.93578086  0.43327827     0.70200
O214        O  0.22875822  0.93190959  0.46122638    -0.46700
C215        C  0.30576170  0.00115664  0.49437123     0.74900
O216        O  0.22976593  0.94906341  0.52804029    -0.58600
O217        O  0.32264508  0.97361060  0.49238853    -0.48700
O218        O  0.27553843  0.93070221  0.55075555    -0.55000
C219        C  0.30836118  0.87886189  0.49387794     0.85100
O220        O  0.27659480  0.94122010  0.43658664    -0.56900
O221        O  0.27358173  0.99697032  0.49547741    -0.60200
In222      In  0.52547768  0.93822111  0.24509914     1.36900
C223        C  0.46395511  0.93978422  0.21499013     0.77500
O224        O  0.52066172  0.88086244  0.24358440    -0.60900
O225        O  0.53039028  0.90481878  0.29126461    -0.51900
C226        C  0.58714786  0.93915851  0.21461616     0.70200
O227        O  0.55932597  0.94024389  0.19803197    -0.46700
C228        C  0.52598449  0.99806299  0.27740047     0.74900
O229        O  0.49183782  0.93613383  0.19860427    -0.58600
O230        O  0.52152149  0.97009262  0.29270933    -0.48700
O231        O  0.46767267  0.94301370  0.24689380    -0.55000
C232        C  0.52549620  0.87722652  0.27524835     0.85100
O233        O  0.58318041  0.93734083  0.24656723    -0.56900
O234        O  0.52973465  0.99532638  0.24540569    -0.60200
In235      In  0.26966548  0.93683152  0.11808804     1.36900
C236        C  0.26515341  0.88392915  0.07527881     0.77500
O237        O  0.23387293  0.90866635  0.15349693    -0.60900
O238        O  0.23209801  0.96302327  0.15305115    -0.51900
C239        C  0.33026971  0.93896352  0.14975759     0.70200
O240        O  0.32718084  0.93278824  0.11819371    -0.46700
C241        C  0.26700841  0.99080548  0.07701123     0.74900
O242        O  0.28279705  0.88245821  0.10223545    -0.58600
O243        O  0.24088467  0.97296851  0.08391152    -0.48700
O244        O  0.24866624  0.91129044  0.07148794    -0.55000
C245        C  0.22048847  0.93563561  0.16541658     0.85100
O246        O  0.30210623  0.94435397  0.16519915    -0.56900
O247        O  0.29400502  0.98239792  0.09267497    -0.60200
In248      In  0.26750989  0.05950395  0.99737899     1.36900
C249        C  0.26204560  0.01696206  0.94408830     0.77500
O250        O  0.29375628  0.03181612  0.04045588    -0.60900
O251        O  0.23975551  0.02573003  0.03502347    -0.51900
C252        C  0.32767550  0.09264648  0.99782963     0.70200
O253        O  0.32455585  0.06192179  0.98840442    -0.46700
C254        C  0.21907484  0.10755226  0.99843907     0.74900
O255        O  0.28086625  0.04319937  0.94336676    -0.58600
O256        O  0.23302298  0.09609107  0.02506882    -0.48700
O257        O  0.24419225  0.01389497  0.97088118    -0.55000
C258        C  0.26669105  0.01733527  0.05075705     0.85100
O259        O  0.29979396  0.10655342  0.00717336    -0.56900
O260        O  0.22960194  0.09424292  0.97078127    -0.60200
In261      In  0.27219050  0.81595259  0.99510671     1.36900
C262        C  0.27010656  0.85846233  0.94229347     0.77500
O263        O  0.23698256  0.77855299  0.96895245    -0.60900
O264        O  0.23747041  0.77938793  0.02335371    -0.51900
C265        C  0.33390544  0.78617607  0.99234333     0.70200
O266        O  0.32959489  0.81687629  0.00134672    -0.46700
C267        C  0.26553062  0.85754779  0.04868651     0.74900
O268        O  0.29765904  0.84560290  0.95315867    -0.58600
O269        O  0.24800849  0.86053723  0.02185329    -0.48700
O270        O  0.24312080  0.84804109  0.95696788    -0.55000
C271        C  0.22534421  0.76620123  0.99644695     0.85100
O272        O  0.30647418  0.77078120  0.98439830    -0.56900
O273        O  0.28494308  0.83171360  0.04939731    -0.60200
In274      In  0.27126350  0.93820088  0.87408677     1.36900
C275        C  0.26301706  0.99050316  0.91736964     0.77500
O276        O  0.23802224  0.96714531  0.83670757    -0.60900
O277        O  0.23514746  0.91296403  0.83730320    -0.51900
C278        C  0.33295806  0.93449215  0.84371558     0.70200
O279        O  0.32739455  0.95161089  0.87060662    -0.46700
C280        C  0.27004373  0.88523991  0.91641109     0.74900
O281        O  0.28339179  0.99167260  0.89216554    -0.58600
O282        O  0.24288704  0.89930873  0.90591252    -0.48700
O283        O  0.24534820  0.96356089  0.91921608    -0.55000
C284        C  0.22451239  0.94046005  0.82450532     0.85100
O285        O  0.30662083  0.91964590  0.83196253    -0.56900
O286        O  0.29754732  0.89742804  0.90444568    -0.60200
In287      In  0.77707386  0.06044284  0.99755094     1.36900
C288        C  0.78492592  0.01972650  0.05102804     0.77500
O289        O  0.75021951  0.02686934  0.95897469    -0.60900
O290        O  0.80460798  0.03002315  0.95631426    -0.51900
C291        C  0.71661839  0.09270271  0.99707459     0.70200
O292        O  0.74370743  0.10594337  0.98496743    -0.46700
C293        C  0.82603077  0.10783662  0.00075760     0.74900
O294        O  0.76444455  0.04479915  0.05176315    -0.58600
O295        O  0.81057175  0.10060966  0.97330614    -0.48700
O296        O  0.80248221  0.01685517  0.02396842    -0.55000
C297        C  0.77751386  0.01659481  0.94483314     0.85100
O298        O  0.72081595  0.06330065  0.00940621    -0.56900
O299        O  0.81601672  0.09137323  0.02660594    -0.60200
In300      In  0.78329519  0.94089829  0.12034366     1.36900
C301        C  0.78646863  0.99393523  0.07791800     0.77500
O302        O  0.82094031  0.96632338  0.15604618    -0.60900
O303        O  0.81761637  0.91212056  0.15616361    -0.51900
C304        C  0.72150042  0.94099011  0.14990889     0.70200
O305        O  0.72576459  0.93940648  0.11791005    -0.46700
C306        C  0.78609511  0.88620811  0.07981190     0.74900
O307        O  0.76682028  0.99387818  0.10365818    -0.58600
O308        O  0.81059226  0.90719438  0.08218538    -0.48700
O309        O  0.80597616  0.96836988  0.07547277    -0.55000
C310        C  0.83144279  0.93852447  0.16849921     0.85100
O311        O  0.74911605  0.94274129  0.16685668    -0.56900
O312        O  0.76100417  0.89198421  0.09959169    -0.60200
In313      In  0.77810144  0.93644424  0.87577875     1.36900
C314        C  0.78561534  0.88529310  0.91964788     0.77500
O315        O  0.81457531  0.90803429  0.84037172    -0.60900
O316        O  0.81450828  0.96221352  0.83939734    -0.51900
C317        C  0.71745191  0.93724185  0.84384657     0.70200
O318        O  0.72347105  0.91883547  0.86950716    -0.46700
C319        C  0.77772685  0.98960538  0.91870467     0.74900
O320        O  0.77031871  0.88137372  0.89149468    -0.58600
O321        O  0.80518885  0.97665577  0.90710062    -0.48700
O322        O  0.79899660  0.91427612  0.92404324    -0.55000
C323        C  0.82698851  0.93488241  0.82760210     0.85100
O324        O  0.74268282  0.95526214  0.83437887    -0.56900
O325        O  0.75044172  0.97618762  0.90751784    -0.60200
In326      In  0.78096591  0.81774412  0.00002379     1.36900
C327        C  0.78549298  0.85919188  0.05387155     0.77500
O328        O  0.81660728  0.78084124  0.02575303    -0.60900
O329        O  0.81754670  0.78304229  0.97142021    -0.51900
C330        C  0.71940575  0.78772762  0.00402012     0.70200
O331        O  0.72283068  0.81937346  0.99883201    -0.46700
C332        C  0.78574022  0.85957705  0.94668204     0.74900
O333        O  0.75866738  0.84232893  0.04731353    -0.58600
O334        O  0.80107847  0.86467360  0.97449028    -0.48700
O335        O  0.81080308  0.85301456  0.03446799    -0.55000
C336        C  0.82941377  0.76964918  0.99818048     0.85100
O337        O  0.74748960  0.77165607  0.00649000    -0.56900
O338        O  0.76885336  0.83207498  0.94523395    -0.60200
In339      In  0.52746509  0.31516015  0.74626304     1.36900
C340        C  0.58076503  0.35721369  0.73992569     0.77500
O341        O  0.55500072  0.27974757  0.70960342    -0.60900
O342        O  0.50024132  0.27796925  0.71238417    -0.51900
C343        C  0.52770291  0.28502833  0.80712121     0.70200
O344        O  0.52153880  0.26902781  0.77970051    -0.46700
C345        C  0.47285210  0.35658208  0.74429881     0.74900
O346        O  0.58205292  0.33075192  0.75812738    -0.58600
O347        O  0.49071828  0.34965724  0.71816460    -0.48700
O348        O  0.55330165  0.36085203  0.72335727    -0.55000
C349        C  0.52745212  0.26644805  0.69887223     0.85100
O350        O  0.53385387  0.31643666  0.80320956    -0.56900
O351        O  0.48153106  0.34077793  0.77092400    -0.60200
In352      In  0.40466965  0.43749451  0.74763082     1.36900
C353        C  0.44614598  0.38311155  0.74451830     0.77500
O354        O  0.36711211  0.41218626  0.71217817    -0.60900
O355        O  0.36976403  0.46639955  0.71179881    -0.51900
C356        C  0.37405757  0.43606969  0.80884000     0.70200
O357        O  0.40515278  0.44449318  0.80454996    -0.46700
C358        C  0.44798640  0.49016122  0.74292762     0.74900
O359        O  0.43013785  0.39164086  0.77134153    -0.58600
O360        O  0.45260249  0.46219484  0.72755391    -0.48700
O361        O  0.43930971  0.40097361  0.71864867    -0.55000
C362        C  0.35582467  0.43975787  0.70000643     0.85100
O363        O  0.35851459  0.42824761  0.78160566    -0.56900
O364        O  0.42001141  0.49227405  0.75938639    -0.60200
In365      In  0.52761924  0.55935978  0.75038904     1.36900
C366        C  0.47465654  0.51664194  0.74343845     0.77500
O367        O  0.49998226  0.59199700  0.71167265    -0.60900
O368        O  0.55436862  0.59691448  0.71597023    -0.51900
C369        C  0.52766417  0.59113477  0.81100684     0.70200
O370        O  0.53657799  0.60590573  0.78371284    -0.46700
C371        C  0.58152222  0.51681871  0.74961557     0.74900
O372        O  0.47187245  0.54440535  0.75978031    -0.58600
O373        O  0.56803993  0.52816724  0.72267687    -0.48700
O374        O  0.50341148  0.51206883  0.72911702    -0.55000
C375        C  0.52716066  0.60628390  0.70111940     0.85100
O376        O  0.51859929  0.56048576  0.80696624    -0.56900
O377        O  0.56912977  0.52902041  0.77689219    -0.60200
In378      In  0.65021807  0.43582506  0.74848831     1.36900
C379        C  0.60761723  0.48965256  0.74928247     0.77500
O380        O  0.68706883  0.46226387  0.71338012    -0.60900
O381        O  0.68589344  0.40797507  0.71189655    -0.51900
C382        C  0.68295404  0.43540845  0.80837116     0.70200
O383        O  0.65359406  0.42235199  0.80402054    -0.46700
C384        C  0.60751333  0.38344358  0.74033071     0.74900
O385        O  0.61933726  0.47653436  0.77620825    -0.58600
O386        O  0.60478153  0.41072677  0.72359616    -0.48700
O387        O  0.61853111  0.47611437  0.72202218    -0.55000
C388        C  0.69887134  0.43516373  0.70032258     0.85100
O389        O  0.69574606  0.44872954  0.78182625    -0.56900
O390        O  0.63350008  0.38184789  0.75946549    -0.60200
In391      In  0.28101960  0.43397986  0.00452404     1.36900
C392        C  0.24868584  0.37385221  0.00366295     0.77500
O393        O  0.27895453  0.43142742  0.94735696    -0.60900
O394        O  0.32802086  0.43593054  0.97079027    -0.51900
C395        C  0.25225842  0.49565312  0.00424014     0.70200
O396        O  0.23611398  0.46913015  0.01329496    -0.46700
C397        C  0.31184459  0.43481144  0.06550674     0.74900
O398        O  0.23345077  0.40167864  0.99762799    -0.58600
O399        O  0.32763168  0.42748434  0.03809440    -0.48700
O400        O  0.28031786  0.37698830  0.01011088    -0.55000
C401        C  0.31113616  0.43385406  0.94328005     0.85100
O402        O  0.28318929  0.49048148  0.99550976    -0.56900
O403        O  0.28040089  0.44188886  0.06150602    -0.60200
In404      In  0.52225155  0.18970220  0.00041342     1.36900
C405        C  0.46096871  0.15909525  0.00027575     0.77500
O406        O  0.53035292  0.18925330  0.05704985    -0.60900
O407        O  0.51507477  0.23593536  0.03418305    -0.51900
C408        C  0.58318862  0.15852274  0.99956918     0.70200
O409        O  0.55541959  0.14300427  0.00614468    -0.46700
C410        C  0.52277555  0.21983633  0.93947546     0.74900
O411        O  0.48862719  0.14378617  0.99254006    -0.58600
O412        O  0.53133047  0.23516032  0.96664770    -0.48700
O413        O  0.46488075  0.19001333  0.00875728    -0.55000
C414        C  0.52303651  0.22041776  0.06131221     0.85100
O415        O  0.57958109  0.18993207  0.99348106    -0.56900
O416        O  0.51348432  0.18930306  0.94373930    -0.60200
In417      In  0.02787298  0.68833206  0.11886099     1.36900
C418        C  0.97510242  0.69387396  0.07616743     0.77500
O419        O  0.00260337  0.73149712  0.14774521    -0.60900
O420        O  0.05373388  0.71783476  0.16125913    -0.51900
C421        C  0.02879254  0.62986280  0.15391206     0.70200
O422        O  0.00417367  0.65085857  0.15602154    -0.46700
C423        C  0.07919719  0.68958943  0.07316446     0.74900
O424        O  0.98036324  0.66754843  0.09388554    -0.58600
O425        O  0.07787880  0.71039685  0.09793052    -0.48700
O426        O  0.99589079  0.71813431  0.08137735    -0.55000
C427        C  0.02811291  0.73696338  0.16682919     0.85100
O428        O  0.05293059  0.63916798  0.13445391    -0.56900
O429        O  0.05463088  0.66864320  0.07202827    -0.60200
In430      In  0.15332393  0.68829077  0.99703337     1.36900
C431        C  0.10651997  0.68936712  0.04707587     0.77500
O432        O  0.19011497  0.72398184  0.02408238    -0.60900
O433        O  0.18604626  0.72723977  0.97001336    -0.51900
C434        C  0.18905363  0.62957623  0.00102724     0.70200
O435        O  0.16650070  0.63853569  0.02247397    -0.46700
C436        C  0.10957630  0.69484127  0.94482520     0.74900
O437        O  0.10708306  0.66718971  0.02359079    -0.58600
O438        O  0.11357143  0.71772844  0.96724761    -0.48700
O439        O  0.13060543  0.71108249  0.04571385    -0.55000
C440        C  0.19986077  0.73848698  0.99692357     0.85100
O441        O  0.19445784  0.65128727  0.97789815    -0.56900
O442        O  0.12895235  0.66918853  0.94818273    -0.60200
In443      In  0.90472436  0.69508916  0.99734414     1.36900
C444        C  0.94782763  0.70253244  0.94480035     0.77500
O445        O  0.86876303  0.73127649  0.97019118    -0.60900
O446        O  0.86791164  0.73028701  0.02447359    -0.51900
C447        C  0.87416261  0.63381601  0.99733384     0.70200
O448        O  0.90244316  0.63962010  0.98237960    -0.46700
C449        C  0.94834611  0.69512943  0.04991697     0.74900
O450        O  0.92117642  0.68417279  0.94280017    -0.58600
O451        O  0.94167954  0.72167830  0.03310342    -0.48700
O452        O  0.95105774  0.71859316  0.97258803    -0.55000
C453        C  0.85600493  0.74309862  0.99751539     0.85100
O454        O  0.86126295  0.65964857  0.01212643    -0.56900
O455        O  0.93157504  0.66906782  0.04099855    -0.60200
In456      In  0.02866442  0.69675214  0.87638102     1.36900
C457        C  0.08287215  0.69690481  0.91838623     0.77500
O458        O  0.05615135  0.73241104  0.83986397    -0.60900
O459        O  0.00151149  0.73272606  0.84057257    -0.51900
C460        C  0.02678051  0.63439646  0.84832672     0.70200
O461        O  0.02123711  0.64001866  0.87968574    -0.46700
C462        C  0.97479053  0.70297676  0.91847832     0.74900
O463        O  0.07742862  0.67316218  0.89720377    -0.58600
O464        O  0.00250219  0.71914451  0.92258908    -0.48700
O465        O  0.06214649  0.72163711  0.91643491    -0.55000
C466        C  0.02875709  0.74450292  0.82756228     0.85100
O467        O  0.03337653  0.66089716  0.83115110    -0.56900
O468        O  0.97349707  0.68528052  0.89147737    -0.60200
In469      In  0.14559741  0.18370881  0.00433335     1.36900
C470        C  0.10208157  0.17583964  0.95274013     0.77500
O471        O  0.17887682  0.14698414  0.97392554    -0.60900
O472        O  0.18299431  0.14729344  0.02809540    -0.51900
C473        C  0.17837989  0.24356039  0.00394977     0.70200
O474        O  0.19068463  0.21732433  0.01812671    -0.46700
C475        C  0.10338383  0.18410588  0.05856185     0.74900
O476        O  0.12997835  0.19202127  0.94955802    -0.58600
O477        O  0.11474742  0.15688846  0.04527354    -0.48700
O478        O  0.09728530  0.16248371  0.98163235    -0.55000
C479        C  0.19295102  0.13454303  0.00006414     0.85100
O480        O  0.14935972  0.23899213  0.99033738    -0.56900
O481        O  0.11500456  0.21109445  0.04539577    -0.60200
In482      In  0.02407462  0.18428558  0.12969081     1.36900
C483        C  0.07688724  0.18434188  0.08548385     0.77500
O484        O  0.05129892  0.14950533  0.16656455    -0.60900
O485        O  0.99671826  0.14756467  0.16489019    -0.51900
C486        C  0.02388353  0.24518814  0.16136564     0.70200
O487        O  0.04270483  0.22063514  0.17074702    -0.46700
C488        C  0.97171602  0.17518736  0.08656136     0.74900
O489        O  0.06340422  0.21147602  0.09681071    -0.58600
O490        O  0.00028226  0.16018751  0.08323061    -0.48700
O491        O  0.06429980  0.15731815  0.09764286    -0.55000
C492        C  0.02408451  0.13592530  0.17763040     0.85100
O493        O  0.00499933  0.23832290  0.13610348    -0.56900
O494        O  0.96876016  0.19297223  0.11343040    -0.60200
In495      In  0.90347060  0.18000402  0.00571296     1.36900
C496        C  0.94563718  0.17444198  0.05947746     0.77500
O497        O  0.86870482  0.14088562  0.03005704    -0.60900
O498        O  0.86415921  0.14931892  0.97664190    -0.51900
C499        C  0.87535907  0.24240539  0.00716257     0.70200
O500        O  0.90753647  0.23754581  0.00748934    -0.46700
C501        C  0.94354755  0.17538895  0.95050251     0.74900
O502        O  0.91753641  0.19057716  0.06116574    -0.58600
O503        O  0.93887107  0.15061837  0.97050964    -0.48700
O504        O  0.95102745  0.15966841  0.03130645    -0.55000
C505        C  0.85362714  0.13329977  0.00253226     0.85100
O506        O  0.85778607  0.21528009  0.00624835    -0.56900
O507        O  0.92634700  0.20182858  0.95762815    -0.60200
In508      In  0.02399838  0.17826127  0.88208886     1.36900
C509        C  0.96947363  0.17473873  0.92322564     0.77500
O510        O  0.99749671  0.14352181  0.84475867    -0.60900
O511        O  0.05209121  0.14074228  0.84787475    -0.51900
C512        C  0.02482261  0.24028467  0.85338525     0.70200
O513        O  0.02840478  0.23549454  0.88506735    -0.46700
C514        C  0.07595874  0.17446141  0.92598949     0.74900
O515        O  0.97475218  0.19985286  0.90379488    -0.58600
O516        O  0.04788044  0.15905483  0.93030873    -0.48700
O517        O  0.99028429  0.15025613  0.91946119    -0.55000
C518        C  0.02495419  0.13016187  0.83369050     0.85100
O519        O  0.02059754  0.21316734  0.83625966    -0.56900
O520        O  0.07865229  0.19014350  0.89798403    -0.60200
In521      In  0.02468434  0.05908858  0.75544799     1.36900
C522        C  0.07866959  0.01782162  0.76089021     0.77500
O523        O  0.05245307  0.09232641  0.79363540    -0.60900
O524        O  0.99771728  0.09429433  0.79229561    -0.51900
C525        C  0.02398161  0.09184612  0.69573605     0.70200
O526        O  0.01189269  0.10502246  0.72284250    -0.46700
C527        C  0.97175319  0.01552554  0.75466884     0.74900
O528        O  0.08020472  0.04545808  0.74449640    -0.58600
O529        O  0.98640673  0.02483835  0.78183803    -0.48700
O530        O  0.05052654  0.01255636  0.77611243    -0.55000
C531        C  0.02510416  0.10484989  0.80597765     0.85100
O532        O  0.03642931  0.06236171  0.69959199    -0.56900
O533        O  0.98296714  0.02965823  0.72796222    -0.60200
In534      In  0.14938819  0.94049356  0.75028925     1.36900
C535        C  0.10707558  0.88681114  0.75072432     0.77500
O536        O  0.18656214  0.91383691  0.78473638    -0.60900
O537        O  0.18525394  0.96812422  0.78631207    -0.51900
C538        C  0.18042255  0.94153026  0.68918276     0.70200
O539        O  0.15111566  0.95449149  0.69459893    -0.46700
C540        C  0.10592560  0.99207441  0.75991864     0.74900
O541        O  0.11880991  0.89948185  0.72347446    -0.58600
O542        O  0.10250752  0.96366186  0.77448434    -0.48700
O543        O  0.11813767  0.90051018  0.77775095    -0.55000
C544        C  0.19822132  0.94093846  0.79778398     0.85100
O545        O  0.19378987  0.92786694  0.71515052    -0.56900
O546        O  0.13305487  0.99523383  0.74233388    -0.60200
In547      In  0.90233228  0.93564077  0.75286988     1.36900
C548        C  0.94531895  0.98881009  0.75407477     0.77500
O549        O  0.86581378  0.96197500  0.78883784    -0.60900
O550        O  0.86651122  0.90763218  0.78872250    -0.51900
C551        C  0.87045097  0.93818744  0.69254534     0.70200
O552        O  0.90012265  0.92561548  0.69639263    -0.46700
C553        C  0.94557252  0.88336228  0.75967938     0.74900
O554        O  0.93297364  0.97704340  0.72669373    -0.58600
O555        O  0.94938933  0.91145342  0.77497444    -0.48700
O556        O  0.93453367  0.97448845  0.78087360    -0.55000
C557        C  0.85377969  0.93471780  0.80109311     0.85100
O558        O  0.85675865  0.94915932  0.71981871    -0.56900
O559        O  0.91800425  0.88068706  0.74287500    -0.60200
In560      In  0.02741930  0.81688070  0.75072584     1.36900
C561        C  0.97299120  0.85766240  0.75895624     0.77500
O562        O  0.00090547  0.78343224  0.78944849    -0.60900
O563        O  0.05542487  0.78003167  0.78509684    -0.51900
C564        C  0.02793702  0.78555965  0.68962474     0.70200
O565        O  0.03625374  0.77068789  0.71700626    -0.46700
C566        C  0.08078896  0.85995837  0.75092292     0.74900
O567        O  0.97146337  0.83049615  0.74155175    -0.58600
O568        O  0.06674002  0.84944265  0.77801919    -0.48700
O569        O  0.00136665  0.86268820  0.77359165    -0.55000
C570        C  0.02840414  0.76999429  0.80007649     0.85100
O571        O  0.01897740  0.81629738  0.69371238    -0.56900
O572        O  0.06890583  0.84709309  0.72387279    -0.60200
In573      In  0.14609672  0.93554579  0.24091643     1.36900
C574        C  0.10633681  0.88033488  0.23895890     0.77500
O575        O  0.13002710  0.98917272  0.25606426    -0.60900
O576        O  0.09984829  0.96271726  0.21952153    -0.51900
C577        C  0.17683073  0.93517157  0.30160104     0.70200
O578        O  0.19340206  0.93334094  0.27372489    -0.46700
C579        C  0.19385527  0.93540440  0.19198031     0.74900
O580        O  0.12462003  0.88762662  0.26449101    -0.58600
O581        O  0.18073559  0.96251588  0.20376570    -0.48700
O582        O  0.10969598  0.90018758  0.21387700    -0.55000
C583        C  0.10348826  0.98913796  0.23763442     0.85100
O584        O  0.14456739  0.93741041  0.29820641    -0.56900
O585        O  0.18258887  0.90824763  0.20512670    -0.60200
In586      In  0.02430691  0.05884482  0.24904636     1.36900
C587        C  0.97074010  0.01626922  0.24701104     0.77500
O588        O  0.99693185  0.09657437  0.21577332    -0.60900
O589        O  0.05178069  0.09492165  0.21362628    -0.51900
C590        C  0.02409024  0.09086834  0.30973473     0.70200
O591        O  0.01608257  0.10562457  0.28226460    -0.46700
C592        C  0.07720853  0.01606307  0.23927249     0.74900
O593        O  0.98287823  0.02759434  0.27467442    -0.58600
O594        O  0.04963000  0.01417144  0.22259860    -0.48700
O595        O  0.98422267  0.02858911  0.22042665    -0.55000
C596        C  0.02429573  0.10849908  0.20300736     0.85100
O597        O  0.03187734  0.05974902  0.30603655    -0.56900
O598        O  0.07899444  0.04136711  0.25927460    -0.60200
In599      In  0.90441455  0.93389368  0.24454077     1.36900
C600        C  0.94687699  0.88043412  0.23769023     0.77500
O601        O  0.86975858  0.90896002  0.20593767    -0.60900
O602        O  0.86878000  0.96321885  0.21037002    -0.51900
C603        C  0.87126351  0.93357159  0.30439665     0.70200
O604        O  0.90358824  0.93203583  0.30151088    -0.46700
C605        C  0.94512981  0.98881611  0.24586960     0.74900
O606        O  0.92087226  0.87974368  0.25704874    -0.58600
O607        O  0.93590334  0.97466512  0.21836534    -0.48700
O608        O  0.94981699  0.90729178  0.22036407    -0.55000
C609        C  0.85738396  0.93688263  0.19552090     0.85100
O610        O  0.85545728  0.93492263  0.27624490    -0.56900
O611        O  0.93243611  0.97588653  0.27250677    -0.60200
In612      In  0.02686191  0.81112200  0.24222255     1.36900
C613        C  0.08082225  0.85292105  0.23935218     0.77500
O614        O  0.05443132  0.77186409  0.20987973    -0.60900
O615        O  0.00068138  0.77910557  0.20218588    -0.51900
C616        C  0.02567985  0.77976046  0.30273697     0.70200
O617        O  0.02258561  0.81173294  0.29965848    -0.46700
C618        C  0.97341208  0.85376616  0.23729942     0.74900
O619        O  0.07331836  0.83642485  0.26595780    -0.58600
O620        O  0.00040211  0.85660262  0.21963250    -0.48700
O621        O  0.06258615  0.84602621  0.21372011    -0.55000
C622        C  0.02777987  0.76334548  0.19356348     0.85100
O623        O  0.02926346  0.76390620  0.27473047    -0.56900
O624        O  0.97250916  0.82773511  0.25619208    -0.60200
In625      In  0.77533547  0.55899933  0.50285565     1.36900
C626        C  0.77604759  0.51722341  0.55664262     0.77500
O627        O  0.73889327  0.59565956  0.52857176    -0.60900
O628        O  0.73860187  0.59295357  0.47422782    -0.51900
C629        C  0.83585951  0.59104448  0.50162190     0.70200
O630        O  0.83130857  0.56144341  0.48969266    -0.46700
C631        C  0.76643995  0.51646579  0.45060559     0.74900
O632        O  0.80324671  0.52670515  0.54174375    -0.58600
O633        O  0.75185319  0.51238721  0.47914666    -0.48700
O634        O  0.74879154  0.53032051  0.54520066    -0.55000
C635        C  0.72610347  0.60630666  0.50098230     0.85100
O636        O  0.80920163  0.60444129  0.51464370    -0.56900
O637        O  0.78381965  0.54350552  0.44790772    -0.60200
In638      In  0.77435886  0.43795849  0.62566048     1.36900
C639        C  0.76542182  0.38612019  0.58255370     0.77500
O640        O  0.73869827  0.40899348  0.66099089    -0.60900
O641        O  0.73755254  0.46328548  0.66213945    -0.51900
C642        C  0.83457368  0.43875558  0.65801149     0.70200
O643        O  0.83037353  0.42460732  0.62928948    -0.46700
C644        C  0.77574349  0.49108402  0.58333709     0.74900
O645        O  0.78299781  0.38339437  0.60945237    -0.58600
O646        O  0.74815063  0.47927695  0.59564143    -0.48700
O647        O  0.75068783  0.41454046  0.57881352    -0.55000
C648        C  0.72567932  0.43570607  0.67382371     0.85100
O649        O  0.80777833  0.45259726  0.67022306    -0.56900
O650        O  0.80280972  0.47701984  0.59408217    -0.60200
In651      In  0.77224976  0.43790944  0.38102812     1.36900
C652        C  0.76571841  0.49016771  0.42400473     0.77500
O653        O  0.73456210  0.46589179  0.34693590    -0.60900
O654        O  0.73766295  0.41189011  0.34297479    -0.51900
C655        C  0.83382150  0.43755249  0.35036718     0.70200
O656        O  0.82867209  0.45051795  0.37955097    -0.46700
C657        C  0.77146252  0.38485192  0.42362014     0.74900
O658        O  0.78189111  0.49277767  0.39604874    -0.58600
O659        O  0.74450581  0.40038553  0.41473278    -0.48700
O660        O  0.75099622  0.46190927  0.42865758    -0.55000
C661        C  0.72395354  0.43905254  0.33241714     0.85100
O662        O  0.80727866  0.42486096  0.33676934    -0.56900
O663        O  0.79869055  0.39513583  0.40934134    -0.60200
In664      In  0.77170171  0.31660209  0.50372781     1.36900
C665        C  0.77132554  0.35865373  0.45027455     0.77500
O666        O  0.73523105  0.28060763  0.47735212    -0.60900
O667        O  0.73735167  0.27906263  0.53154134    -0.51900
C668        C  0.83307449  0.28645883  0.50449303     0.70200
O669        O  0.82774792  0.31568669  0.51718530    -0.46700
C670        C  0.76468893  0.35958306  0.55614266     0.74900
O671        O  0.79819505  0.34328342  0.45972778    -0.58600
O672        O  0.74857154  0.36325388  0.52851608    -0.48700
O673        O  0.74452553  0.35126579  0.46698312    -0.55000
C674        C  0.72425983  0.26717920  0.50452510     0.85100
O675        O  0.80699018  0.27289113  0.49081390    -0.56900
O676        O  0.78230999  0.33260596  0.55804312    -0.60200
In677      In  0.02662829  0.18946322  0.50312086     1.36900
C678        C  0.96564205  0.21953428  0.50515626     0.77500
O679        O  0.02525156  0.19134648  0.44554034    -0.60900
O680        O  0.02751215  0.14284426  0.46928231    -0.51900
C681        C  0.08779251  0.22011917  0.50267819     0.70200
O682        O  0.06051482  0.23501239  0.49358808    -0.46700
C683        C  0.02363182  0.15895380  0.56393682     0.74900
O684        O  0.99324549  0.23526717  0.51193728    -0.58600
O685        O  0.03122828  0.14318850  0.53660452    -0.48700
O686        O  0.96954754  0.18842065  0.49730266    -0.55000
C687        C  0.02624780  0.15936694  0.44161261     0.85100
O688        O  0.08350730  0.18978658  0.51240636    -0.56900
O689        O  0.01736410  0.19031778  0.55996305    -0.60200
In690      In  0.02969618  0.43997690  0.25605999     1.36900
C691        C  0.96828600  0.43835736  0.28610487     0.77500
O692        O  0.01605423  0.49574018  0.25339073    -0.60900
O693        O  0.04137688  0.47339632  0.21071776    -0.51900
C694        C  0.08983065  0.44243715  0.28894607     0.70200
O695        O  0.06149076  0.43858914  0.30448417    -0.46700
C696        C  0.02929484  0.37869219  0.22600721     0.74900
O697        O  0.99511557  0.44861865  0.30119406    -0.58600
O698        O  0.02276880  0.40593599  0.21003362    -0.48700
O699        O  0.97307600  0.42859381  0.25562680    -0.55000
C700        C  0.02864027  0.50005675  0.22398100     0.85100
O701        O  0.08704962  0.44480138  0.25693406    -0.56900
O702        O  0.03665621  0.38304598  0.25716103    -0.60200
In703      In  0.03118418  0.68532202  0.49725080     1.36900
C704        C  0.03279943  0.71727083  0.55767001     0.77500
O705        O  0.97411447  0.68611838  0.50513859    -0.60900
O706        O  0.99743330  0.63914288  0.49078529    -0.51900
C707        C  0.02853695  0.71449276  0.43555494     0.70200
O708        O  0.02570887  0.73104892  0.46321039    -0.46700
C709        C  0.09236452  0.65519148  0.50001561     0.74900
O710        O  0.03333710  0.73308492  0.52955911    -0.58600
O711        O  0.06455772  0.63910641  0.50465961    -0.48700
O712        O  0.03196802  0.68516230  0.55468169    -0.55000
C713        C  0.96999789  0.65491558  0.49822900     0.85100
O714        O  0.03321629  0.68284219  0.43949127    -0.56900
O715        O  0.08860714  0.68654109  0.49358244    -0.60200
In716      In  0.02518795  0.43598359  0.76112135     1.36900
C717        C  0.08665797  0.43591789  0.73043726     0.77500
O718        O  0.02720004  0.49306668  0.75695471    -0.60900
O719        O  0.02340269  0.47171904  0.80656093    -0.51900
C720        C  0.96442660  0.43612358  0.72986485     0.70200
O721        O  0.99251652  0.43037472  0.71447581    -0.46700
C722        C  0.02533321  0.37471101  0.79120162     0.74900
O723        O  0.05879997  0.44040818  0.71454361    -0.58600
O724        O  0.02802687  0.40227058  0.80800389    -0.48700
O725        O  0.08294915  0.43134190  0.76216516    -0.55000
C726        C  0.02525745  0.49852172  0.78870027     0.85100
O727        O  0.96736001  0.44104948  0.76168115    -0.56900
O728        O  0.02182827  0.37883955  0.75943265    -0.60200
In729      In  0.77476748  0.93652371  0.49862397     1.36900
C730        C  0.80386433  0.93453129  0.43681699     0.77500
O731        O  0.77678240  0.87936981  0.50291358    -0.60900
O732        O  0.72795646  0.90261660  0.49604506    -0.51900
C733        C  0.80563539  0.93964921  0.55947431     0.70200
O734        O  0.82214717  0.93727632  0.53163765    -0.46700
C735        C  0.74561161  0.99809608  0.49852465     0.74900
O736        O  0.82104034  0.93562581  0.46419424    -0.58600
O737        O  0.72905745  0.97108848  0.50498257    -0.48700
O738        O  0.77160542  0.93418740  0.44117582    -0.55000
C739        C  0.74470461  0.87521159  0.49985137     0.85100
O740        O  0.77334390  0.94032123  0.55601546    -0.56900
O741        O  0.77705517  0.99340225  0.49164930    -0.60200
In742      In  0.78100512  0.43787834  0.00128656     1.36900
C743        C  0.81103410  0.37629272  0.00354664     0.77500
O744        O  0.78082760  0.43216275  0.05840177    -0.60900
O745        O  0.73327365  0.44255039  0.03388505    -0.51900
C746        C  0.81083378  0.49956026  0.00169543     0.70200
O747        O  0.82694404  0.47254409  0.99384682    -0.46700
C748        C  0.75090559  0.43790352  0.93993853     0.74900
O749        O  0.82753789  0.40381021  0.00777060    -0.58600
O750        O  0.73434388  0.43444982  0.96757875    -0.48700
O751        O  0.77938111  0.38050269  0.99761177    -0.55000
C752        C  0.74878519  0.43698428  0.06166619     0.85100
O753        O  0.77977161  0.49476568  0.00994444    -0.56900
O754        O  0.78296545  0.44143638  0.94373086    -0.60200
In755      In  0.52736126  0.68746214  0.00481750     1.36900
C756        C  0.46697599  0.71981064  0.99962011     0.77500
O757        O  0.54086568  0.68669450  0.94891721    -0.60900
O758        O  0.51734118  0.64273276  0.97018927    -0.51900
C759        C  0.58695166  0.72050576  0.00983462     0.70200
O760        O  0.55835545  0.73584528  0.00848252    -0.46700
C761        C  0.52745953  0.65459791  0.06426014     0.74900
O762        O  0.49503011  0.73531984  0.00460854    -0.58600
O763        O  0.53861289  0.64110662  0.03703505    -0.48700
O764        O  0.46990546  0.68773004  0.99775609    -0.55000
C765        C  0.52956728  0.65689816  0.94386413     0.85100
O766        O  0.58476134  0.68834549  0.00902273    -0.56900
O767        O  0.51581774  0.68442927  0.06067874    -0.60200
In768      In  0.52588360  0.93555832  0.74213522     1.36900
C769        C  0.58610989  0.93791057  0.77445483     0.77500
O770        O  0.54084848  0.88055795  0.73963233    -0.60900
O771        O  0.51723211  0.90207904  0.69581740    -0.51900
C772        C  0.46583111  0.93115213  0.77569003     0.70200
O773        O  0.49268569  0.94359583  0.78889935    -0.46700
C774        C  0.52300611  0.99635526  0.71152860     0.74900
O775        O  0.55897987  0.92637702  0.78810402    -0.58600
O776        O  0.53257836  0.96959853  0.69591703    -0.48700
O777        O  0.58229892  0.94835094  0.74421222    -0.55000
C778        C  0.52972466  0.87576906  0.70974825     0.85100
O779        O  0.46985501  0.92081219  0.74531767    -0.56900
O780        O  0.51432724  0.99153705  0.74224206    -0.60200
C781        C  0.86932413  0.23416027  0.49925914    -0.21400
C782        C  0.86698617  0.26943666  0.50560433    -0.09400
C783        C  0.89718304  0.28798097  0.51289235     0.29400
C784        C  0.92915506  0.27148742  0.51300846    -0.21400
C785        C  0.93155391  0.23628094  0.50611910    -0.09400
C786        C  0.90123205  0.21760468  0.49967194     0.29400
F787        F  0.90229288  0.18339713  0.49361781    -0.20000
H788        H  0.84635399  0.21930205  0.49402903     0.17800
H789        H  0.95210210  0.28639553  0.51813343     0.17800
F790        F  0.89601376  0.32216421  0.51906557    -0.19900
C791        C  0.89539836  0.45576842  0.34859161    -0.21400
C792        C  0.86814944  0.43736120  0.33373261    -0.09400
C793        C  0.87418133  0.41906355  0.30315560     0.29400
C794        C  0.90678502  0.41962307  0.28769095    -0.21400
C795        C  0.93399073  0.43802389  0.30262319    -0.09400
C796        C  0.92801274  0.45613638  0.33325804     0.29400
F797        F  0.95349254  0.47469486  0.34815005    -0.20000
H798        H  0.89142860  0.47011997  0.37206439     0.17800
H799        H  0.91083895  0.40534229  0.26417215     0.17800
F800        F  0.84879331  0.40028684  0.28839013    -0.19900
C801        C  0.86974422  0.45022021  0.71010281    -0.21400
C802        C  0.86799788  0.43886230  0.67598451    -0.09400
C803        C  0.89826233  0.42715733  0.65966160     0.29400
C804        C  0.92943264  0.42649260  0.67741418    -0.21400
C805        C  0.93106844  0.43718611  0.71175229    -0.09400
C806        C  0.90089267  0.44923749  0.72797083     0.29400
F807        F  0.90140468  0.46024816  0.76097742    -0.20000
H808        H  0.84683492  0.45947738  0.72317184     0.17800
H809        H  0.95232683  0.41731551  0.66427449     0.17800
F810        F  0.89790591  0.41640841  0.62654973    -0.19900
C811        C  0.89870823  0.58952084  0.48868179    -0.21400
C812        C  0.86986036  0.60800176  0.50048681    -0.09400
C813        C  0.87415879  0.64214820  0.51109626     0.29400
C814        C  0.90686178  0.65715740  0.51030683    -0.21400
C815        C  0.93575251  0.63850332  0.49885639    -0.09400
C816        C  0.93136185  0.60449914  0.48790766     0.29400
F817        F  0.95846865  0.58568016  0.47625780    -0.20000
H818        H  0.89607376  0.56326624  0.48018850     0.17800
H819        H  0.90955723  0.68344218  0.51870868     0.17800
F820        F  0.84687989  0.66116108  0.52199090    -0.19900
C821        C  0.01638460  0.78097111  0.36607758    -0.21400
C822        C  0.02535161  0.76247478  0.33641554    -0.09400
C823        C  0.03446880  0.72775745  0.33949645     0.29400
C824        C  0.03491513  0.71213808  0.37170335    -0.21400
C825        C  0.02665213  0.73087047  0.40144984    -0.09400
C826        C  0.01703494  0.76542787  0.39825918     0.29400
F827        F  0.00825619  0.78431929  0.42622534    -0.20000
H828        H  0.00902666  0.80762424  0.36441804     0.17800
H829        H  0.04237110  0.68551285  0.37341752     0.17800
F830        F  0.04386226  0.70908329  0.31156807    -0.19900
C831        C  0.85651193  0.93624927  0.40024851    -0.21400
C832        C  0.82045661  0.93405152  0.40261787    -0.09400
C833        C  0.80100568  0.93212901  0.37225926     0.29400
C834        C  0.81761818  0.93182122  0.34032351    -0.21400
C835        C  0.85373210  0.93392043  0.33809222    -0.09400
C836        C  0.87301213  0.93658201  0.36844247     0.29400
F837        F  0.90783377  0.94019858  0.36753173    -0.20000
H838        H  0.87208039  0.93820359  0.42313041     0.17800
H839        H  0.80219434  0.93006157  0.31731714     0.17800
F840        F  0.76602328  0.93081672  0.37330110    -0.19900
C841        C  0.02112256  0.14431187  0.34536101    -0.21400
C842        C  0.02447948  0.10854034  0.34339172    -0.09400
C843        C  0.02843616  0.08992738  0.37386857     0.29400
C844        C  0.02909218  0.10675980  0.40548257    -0.21400
C845        C  0.02582422  0.14245850  0.40757029    -0.09400
C846        C  0.02186383  0.16122742  0.37708244     0.29400
F847        F  0.01849190  0.19580099  0.37780414    -0.20000
H848        H  0.01808108  0.15926263  0.32227574     0.17800
H849        H  0.03209332  0.09167690  0.42848475     0.17800
F850        F  0.03122716  0.05533418  0.37328818    -0.19900
C851        C  0.03815264  0.73372615  0.65336370    -0.21400
C852        C  0.02904832  0.76844716  0.65564183    -0.09400
C853        C  0.02166884  0.78634163  0.62526505     0.29400
C854        C  0.02353410  0.76967295  0.59347690    -0.21400
C855        C  0.03235633  0.73487073  0.59132316    -0.09400
C856        C  0.03972263  0.71702922  0.62164049     0.29400
F857        F  0.04889457  0.68352284  0.62071215    -0.20000
H858        H  0.04409714  0.71937693  0.67623370     0.17800
H859        H  0.01756891  0.78391815  0.57053597     0.17800
F860        F  0.01265107  0.81989959  0.62610966    -0.19900
C861        C  0.87362857  0.93604308  0.62889338    -0.21400
C862        C  0.85362427  0.94006709  0.65870942    -0.09400
C863        C  0.81791938  0.94566667  0.65560813     0.29400
C864        C  0.80253248  0.94577752  0.62323633    -0.21400
C865        C  0.82249814  0.94102827  0.59340988    -0.09400
C866        C  0.85840481  0.93693790  0.59655359     0.29400
F867        F  0.87888603  0.93349585  0.56846605    -0.20000
H868        H  0.90126762  0.93232219  0.63058968     0.17800
H869        H  0.77487782  0.94938781  0.62153615     0.17800
F870        F  0.79775280  0.95021968  0.68378686    -0.19900
C871        C  0.01411428  0.14372554  0.65965986    -0.21400
C872        C  0.02346942  0.10910993  0.66209299    -0.09400
C873        C  0.03214794  0.09103903  0.63197821     0.29400
C874        C  0.03173222  0.10740317  0.60028625    -0.21400
C875        C  0.02275330  0.14206775  0.59779364    -0.09400
C876        C  0.01372511  0.16014830  0.62785531     0.29400
F877        F  0.00460329  0.19365149  0.62663492    -0.20000
H878        H  0.00725165  0.15817528  0.68244419     0.17800
H879        H  0.03865386  0.09284249  0.57759058     0.17800
F880        F  0.04072821  0.05738992  0.63297280    -0.19900
C881        C  0.02847697  0.27819216  0.80201874    -0.21400
C882        C  0.02555180  0.27476717  0.83770141    -0.09400
C883        C  0.02359152  0.30455654  0.85806523     0.29400
C884        C  0.02385394  0.33695347  0.84287933    -0.21400
C885        C  0.02619319  0.34034928  0.80715616    -0.09400
C886        C  0.02914506  0.31057522  0.78686636     0.29400
F887        F  0.03324554  0.31268730  0.75239278    -0.20000
H888        H  0.03059819  0.25573612  0.78578506     0.17800
H889        H  0.02181758  0.35940171  0.85909359     0.17800
F890        F  0.02078790  0.30246932  0.89264935    -0.19900
C891        C  0.86322674  0.33902370  0.00991924    -0.21400
C892        C  0.82737657  0.34200174  0.00542837    -0.09400
C893        C  0.80751165  0.31194725  0.00296190     0.29400
C894        C  0.82340549  0.27984851  0.00365578    -0.21400
C895        C  0.85929481  0.27683892  0.00739079    -0.09400
C896        C  0.87908433  0.30681505  0.01113643     0.29400
F897        F  0.91365088  0.30513855  0.01631692    -0.20000
H898        H  0.87905488  0.36166693  0.01249054     0.17800
H899        H  0.80747821  0.25723922  0.00122072     0.17800
F900        F  0.77265104  0.31337146  0.00017583    -0.19900
C901        C  0.01048699  0.34007655  0.17849994    -0.21400
C902        C  0.02779786  0.34447235  0.20971844    -0.09400
C903        C  0.04304322  0.31584778  0.22529186     0.29400
C904        C  0.04158012  0.28369472  0.20946408    -0.21400
C905        C  0.02436757  0.27926663  0.17818123    -0.09400
C906        C  0.00842499  0.30780108  0.16298968     0.29400
F907        F  0.99124810  0.30474221  0.13291656    -0.20000
H908        H  0.99822378  0.36164893  0.16618034     0.17800
H909        H  0.05393411  0.26217708  0.22177041     0.17800
F910        F  0.05990208  0.31897945  0.25552968    -0.19900
C911        C  0.02736532  0.59536593  0.79740595    -0.21400
C912        C  0.02582342  0.59964400  0.83311018    -0.09400
C913        C  0.02358292  0.57043087  0.85396820     0.29400
C914        C  0.02336831  0.53773656  0.83931517    -0.21400
C915        C  0.02517428  0.53341003  0.80365221    -0.09400
C916        C  0.02693603  0.56264656  0.78272050     0.29400
F917        F  0.02827368  0.55975823  0.74807538    -0.20000
H918        H  0.02885139  0.61741264  0.78076844     0.17800
H919        H  0.02189227  0.51572874  0.85598999     0.17800
F920        F  0.02202935  0.57330118  0.88859272    -0.19900
C921        C  0.82548040  0.59504205  0.01369143    -0.21400
C922        C  0.85779957  0.59952404  0.99789525    -0.09400
C923        C  0.87436091  0.57086568  0.98320757     0.29400
C924        C  0.85908864  0.53848697  0.98488886    -0.21400
C925        C  0.82683220  0.53399040  0.00074878    -0.09400
C926        C  0.80998430  0.56272074  0.01494723     0.29400
F927        F  0.77868271  0.55962860  0.03035287    -0.20000
H928        H  0.81210946  0.61662527  0.02511699     0.17800
H929        H  0.87244091  0.51690995  0.97345742     0.17800
F930        F  0.90540059  0.57395680  0.96729128    -0.19900
C931        C  0.00815713  0.59212040  0.20118721    -0.21400
C932        C  0.02926540  0.59694937  0.17230801    -0.09400
C933        C  0.05063329  0.56998184  0.16108548     0.29400
C934        C  0.04986834  0.53845910  0.17775749    -0.21400
C935        C  0.02876796  0.53355698  0.20661415    -0.09400
C936        C  0.00835114  0.56095130  0.21865803     0.29400
F937        F  0.98840431  0.55763792  0.24711901    -0.20000
H938        H  0.99184077  0.61267752  0.21053842     0.17800
H939        H  0.06616865  0.51794938  0.16828827     0.17800
F940        F  0.07193238  0.57383131  0.13368300    -0.19900
C941        C  0.22984342  0.27965346  0.01659630    -0.21400
C942        C  0.19635515  0.27688238  0.00336059    -0.09400
C943        C  0.18038728  0.30618274  0.98976057     0.29400
C944        C  0.19755135  0.33761465  0.98994785    -0.21400
C945        C  0.23099565  0.34038585  0.00330986    -0.09400
C946        C  0.24713375  0.31099620  0.01644206     0.29400
F947        F  0.27942942  0.31254466  0.02964053    -0.20000
H948        H  0.24272597  0.25750026  0.02711471     0.17800
H949        H  0.18465957  0.35981621  0.97953690     0.17800
F950        F  0.14807606  0.30466136  0.97657151    -0.19900
C951        C  0.25206784  0.55660333  0.98531266    -0.21400
C952        C  0.23638603  0.53001888  0.00382378    -0.09400
C953        C  0.20564278  0.53671049  0.02187413     0.29400
C954        C  0.19109124  0.56940988  0.02147722    -0.21400
C955        C  0.20635945  0.59586863  0.00248284    -0.09400
C956        C  0.23708164  0.58918431  0.98432094     0.29400
F957        F  0.25275986  0.61408612  0.96583107    -0.20000
H958        H  0.27577009  0.55204023  0.97118390     0.17800
H959        H  0.16733744  0.57385372  0.03555988     0.17800
F960        F  0.18978022  0.51179360  0.04020432    -0.19900
C961        C  0.73438116  0.44815110  0.84468174    -0.21400
C962        C  0.70059362  0.43548459  0.84189153    -0.09400
C963        C  0.68375712  0.42348750  0.87151670     0.29400
C964        C  0.70028667  0.42465628  0.90320419    -0.21400
C965        C  0.73401590  0.43733029  0.90604596    -0.09400
C966        C  0.75106719  0.44898432  0.87639705     0.29400
F967        F  0.78357291  0.46174526  0.87806129    -0.20000
H968        H  0.74791346  0.45752087  0.82228397     0.17800
H969        H  0.68670311  0.41533578  0.92557294     0.17800
F970        F  0.65120186  0.41081292  0.87008323    -0.19900
C971        C  0.54344159  0.64031738  0.84894976    -0.21400
C972        C  0.52816129  0.60798960  0.84498095    -0.09400
C973        C  0.51400445  0.59171026  0.87390024     0.29400
C974        C  0.51488990  0.60769621  0.90592613    -0.21400
C975        C  0.52999013  0.64007493  0.90989973    -0.09400
C976        C  0.54461902  0.65618181  0.88111673     0.29400
F977        F  0.56016800  0.68715657  0.88398367    -0.20000
H978        H  0.55479970  0.65322912  0.82716006     0.17800
H979        H  0.50349239  0.59472199  0.92766242     0.17800
F980        F  0.49898321  0.56045664  0.87131431    -0.19900
C981        C  0.37778550  0.44092119  0.87234224    -0.21400
C982        C  0.35758845  0.43540965  0.84305107    -0.09400
C983        C  0.32197430  0.42957354  0.84701152     0.29400
C984        C  0.30713437  0.42914417  0.87970057    -0.21400
C985        C  0.32740884  0.43442450  0.90899499    -0.09400
C986        C  0.36294921  0.44050058  0.90500198     0.29400
F987        F  0.38339052  0.44637591  0.93253621    -0.20000
H988        H  0.40523602  0.44558691  0.87000240     0.17800
H989        H  0.27965537  0.42460568  0.88206831     0.17800
F990        F  0.30137770  0.42456243  0.81942033    -0.19900
C991        C  0.52027966  0.23322408  0.84338124    -0.21400
C992        C  0.52715232  0.26839570  0.84099741    -0.09400
C993        C  0.53256900  0.28736910  0.87121445     0.29400
C994        C  0.53100366  0.27134324  0.90306805    -0.21400
C995        C  0.52391369  0.23623870  0.90549004    -0.09400
C996        C  0.51848968  0.21722866  0.87526089     0.29400
F997        F  0.51161441  0.18320133  0.87634115    -0.20000
H998        H  0.51602401  0.21804971  0.82050824     0.17800
H999        H  0.53520170  0.28653383  0.92593453     0.17800
F1000       F  0.53907302  0.32145788  0.87014931    -0.19900
C1001       C  0.65493797  0.79032486  0.00831147    -0.21400
C1002       C  0.68542743  0.77081295  0.00717364    -0.09400
C1003       C  0.68311225  0.73496709  0.00891036     0.29400
C1004       C  0.65100425  0.71904373  0.01104361    -0.21400
C1005       C  0.62048233  0.73837699  0.01101977    -0.09400
C1006       C  0.62267422  0.77430419  0.01015420     0.29400
F1007       F  0.59376207  0.79394512  0.01033519    -0.20000
H1008       H  0.65604098  0.81795944  0.00733000     0.17800
H1009       H  0.65006585  0.69138402  0.01173967     0.17800
F1010       F  0.71179323  0.71507323  0.00741053    -0.19900
C1011       C  0.67948925  0.95664500  0.79623339    -0.21400
C1012       C  0.68366944  0.93774474  0.82643622    -0.09400
C1013       C  0.65529489  0.91958308  0.83972239     0.29400
C1014       C  0.62365337  0.92003618  0.82276401    -0.21400
C1015       C  0.61959615  0.93856795  0.79234559    -0.09400
C1016       C  0.64778012  0.95716437  0.77931283     0.29400
F1017       F  0.64467604  0.97617883  0.75049062    -0.20000
H1018       H  0.70084128  0.97104578  0.78562051     0.17800
H1019       H  0.60233024  0.90560196  0.83336030     0.17800
F1020       F  0.65793101  0.90148164  0.86917705    -0.19900
C1021       C  0.64599484  0.15883364  0.98546658    -0.21400
C1022       C  0.61721074  0.14152777  0.99886797    -0.09400
C1023       C  0.62137710  0.10809161  0.01125990     0.29400
C1024       C  0.65378262  0.09250247  0.01040650    -0.21400
C1025       C  0.68261277  0.10979041  0.99709300    -0.09400
C1026       C  0.67837926  0.14308730  0.98427948     0.29400
F1027       F  0.70535691  0.16043527  0.97049733    -0.20000
H1028       H  0.64338248  0.18452440  0.97555565     0.16600
H1029       H  0.65629172  0.06679853  0.02030953     0.17800
F1030       F  0.59432201  0.09054279  0.02463042    -0.19900
C1031       C  0.37122110  0.91532498  0.79565623    -0.21400
C1032       C  0.36741803  0.93202720  0.82736830    -0.09400
C1033       C  0.39674232  0.94641429  0.84296459     0.29400
C1034       C  0.42878666  0.94523914  0.82637286    -0.21400
C1035       C  0.43231035  0.92972308  0.79401741    -0.09400
C1036       C  0.40327986  0.91410219  0.77909174     0.29400
F1037       F  0.40567352  0.89796104  0.74832319    -0.20000
H1038       H  0.34918286  0.90359335  0.78333609     0.17800
H1039       H  0.45078397  0.95708350  0.83864486     0.17800
F1040       F  0.39453032  0.96180774  0.87414082    -0.19900
C1041       C  0.40412387  0.71889062  0.98611535    -0.21400
C1042       C  0.43337971  0.73750619  0.99622867    -0.09400
C1043       C  0.42994938  0.77273378  0.00308885     0.29400
C1044       C  0.39759831  0.78848769  0.00122839    -0.21400
C1045       C  0.36820780  0.76961910  0.99197019    -0.09400
C1046       C  0.37191954  0.73478213  0.98361978     0.29400
F1047       F  0.34444740  0.71590787  0.97332946    -0.20000
H1048       H  0.40614354  0.69189799  0.98011932     0.17800
H1049       H  0.39551741  0.81543114  0.00740814     0.17800
F1050       F  0.45762900  0.79192110  0.01217723    -0.19900
C1051       C  0.39076897  0.09326965  0.98560255    -0.21400
C1052       C  0.36137212  0.11042238  0.99799327    -0.09400
C1053       C  0.36481627  0.14414157  0.01033519     0.29400
C1054       C  0.39730282  0.15976544  0.01117429    -0.21400
C1055       C  0.42676977  0.14233592  0.99921764    -0.09400
C1056       C  0.42304759  0.10909229  0.98582495     0.29400
F1057       F  0.45043225  0.09194930  0.97236944    -0.20000
H1058       H  0.38878444  0.06754639  0.97544955     0.17800
H1059       H  0.39937480  0.18556042  0.02114673     0.17800
F1060       F  0.33693254  0.16208346  0.02154917    -0.19900
C1061       C  0.62449765  0.93694161  0.16237264    -0.21400
C1062       C  0.62153127  0.93988420  0.19810726    -0.09400
C1063       C  0.65168326  0.94337587  0.21778328     0.29400
C1064       C  0.68404284  0.94365812  0.20190849    -0.21400
C1065       C  0.68703205  0.94065379  0.16619281    -0.09400
C1066       C  0.65688004  0.93728787  0.14647477     0.29400
F1067       F  0.65856483  0.93421018  0.11186308    -0.20000
H1068       H  0.60169341  0.93417871  0.14667135     0.17800
H1069       H  0.70683049  0.94636428  0.21765784     0.17800
F1070       F  0.64998798  0.94688566  0.25234913    -0.19900
C1071       C  0.39982620  0.94693648  0.21756232    -0.21400
C1072       C  0.42976259  0.93994565  0.19828247    -0.09400
C1073       C  0.42655756  0.93267196  0.16312408     0.29400
C1074       C  0.39414775  0.93263255  0.14768570    -0.21400
C1075       C  0.36421575  0.93962380  0.16687809    -0.09400
C1076       C  0.36730576  0.94674860  0.20210358     0.29400
F1077       F  0.33902009  0.95338010  0.22167795    -0.20000
H1078       H  0.40156279  0.95250058  0.24469784     0.17800
H1079       H  0.39250696  0.92687735  0.12058938     0.17800
F1080       F  0.45463732  0.92512905  0.14360639    -0.19900
C1081       C  0.19144757  0.93086922  0.39758858    -0.21400
C1082       C  0.22746028  0.93456015  0.39951167    -0.09400
C1083       C  0.24655057  0.93786612  0.36894125     0.29400
C1084       C  0.22986478  0.93785387  0.33730431    -0.21400
C1085       C  0.19387298  0.93468621  0.33538920    -0.09400
C1086       C  0.17471704  0.93103548  0.36588998     0.29400
F1087       F  0.13988967  0.92740868  0.36517799    -0.20000
H1088       H  0.17613989  0.92817302  0.42068039     0.17800
H1089       H  0.24519332  0.94066210  0.31422612     0.17800
F1090       F  0.28137010  0.94134758  0.36947780    -0.19900
C1091       C  0.24644377  0.92968599  0.61807203    -0.21400
C1092       C  0.22828897  0.94152385  0.58940724    -0.09400
C1093       C  0.19460120  0.95426786  0.59400778     0.29400
C1094       C  0.17940537  0.95457848  0.62658859    -0.21400
C1095       C  0.19734517  0.94206624  0.65512727    -0.09400
C1096       C  0.23120097  0.92981928  0.65057897     0.29400
F1097       F  0.24964918  0.91788730  0.67746421    -0.20000
H1098       H  0.27250616  0.91998660  0.61531529     0.17800
H1099       H  0.15336770  0.96431173  0.62940261     0.17800
F1100       F  0.17625561  0.96635970  0.56711925    -0.19900
C1101       C  0.36017690  0.84261482  0.50596553    -0.21400
C1102       C  0.32614777  0.84520732  0.49398441    -0.09400
C1103       C  0.30928680  0.81531551  0.48274035     0.29400
C1104       C  0.32620535  0.78367174  0.48347441    -0.21400
C1105       C  0.35989588  0.78096057  0.49622295    -0.09400
C1106       C  0.37680635  0.81082893  0.50746919     0.29400
F1107       F  0.40938996  0.80942715  0.52000174    -0.20000
H1108       H  0.37373052  0.86514252  0.51482536     0.17800
H1109       H  0.31260979  0.76111539  0.47470742     0.17800
F1110       F  0.27637134  0.81652428  0.47111899    -0.19900
C1111       C  0.51435486  0.78233116  0.29241731    -0.21400
C1112       C  0.52686121  0.77978284  0.32602884    -0.09400
C1113       C  0.53845579  0.80954974  0.34278509     0.29400
C1114       C  0.53757378  0.84108604  0.32616026    -0.21400
C1115       C  0.52563510  0.84359069  0.29237753    -0.09400
C1116       C  0.51398829  0.81387588  0.27556604     0.29400
F1117       F  0.50194519  0.81529361  0.24301459    -0.20000
H1118       H  0.50521056  0.75981401  0.27902332     0.17800
H1119       H  0.54659493  0.86357484  0.33970042     0.17800
F1120       F  0.55036435  0.80834719  0.37539847    -0.19900
C1121       C  0.55089334  0.81574524  0.70769731    -0.21400
C1122       C  0.53067941  0.84173964  0.69325115    -0.09400
C1123       C  0.51047970  0.83422480  0.66436004     0.29400
C1124       C  0.51047069  0.80118597  0.65049301    -0.21400
C1125       C  0.53041291  0.77510995  0.66522783    -0.09400
C1126       C  0.55084824  0.78275797  0.69389106     0.29400
F1127       F  0.57088223  0.75845940  0.70858391    -0.20000
H1128       H  0.56671454  0.82091320  0.72992676     0.17800
H1129       H  0.49444837  0.79589868  0.62843947     0.17800
F1130       F  0.48994657  0.85839370  0.65013422    -0.19900
C1131       C  0.73191954  0.77898499  0.50310563    -0.21400
C1132       C  0.69585175  0.77621065  0.50121603    -0.09400
C1133       C  0.67595743  0.80632541  0.49950537     0.29400
C1134       C  0.69202135  0.83836498  0.49906859    -0.21400
C1135       C  0.72811577  0.84110049  0.50064859    -0.09400
C1136       C  0.74794990  0.81101633  0.50298803     0.29400
F1137       F  0.78286867  0.81240725  0.50502529    -0.20000
H1138       H  0.74784164  0.75627328  0.50461544     0.17800
H1139       H  0.67613096  0.86109542  0.49755950     0.17800
F1140       F  0.64098864  0.80496693  0.49835288    -0.19900
C1141       C  0.51387411  0.28603789  0.13285115    -0.21400
C1142       C  0.52568285  0.26743532  0.16122177    -0.09400
C1143       C  0.53655152  0.23341577  0.15634811     0.29400
C1144       C  0.53556814  0.21846995  0.12380286    -0.21400
C1145       C  0.52383297  0.23703157  0.09542071    -0.09400
C1146       C  0.51297451  0.27108746  0.10022247     0.29400
F1147       F  0.50129088  0.28991766  0.07354806    -0.20000
H1148       H  0.50540534  0.31229403  0.13588651     0.17800
H1149       H  0.54407302  0.19222077  0.12084419     0.17800
F1150       F  0.54789874  0.21438691  0.18301178    -0.19900
C1151       C  0.30908174  0.44345412  0.12893099    -0.21400
C1152       C  0.32848721  0.43491679  0.09958885    -0.09400
C1153       C  0.36352633  0.42634442  0.10337120     0.29400
C1154       C  0.37857953  0.42615983  0.13582519    -0.21400
C1155       C  0.35920066  0.43472051  0.16513801    -0.09400
C1156       C  0.32419693  0.44342412  0.16140167     0.29400
F1157       F  0.30447766  0.45179400  0.18902085    -0.20000
H1158       H  0.28206907  0.45018045  0.12677533     0.17800
H1159       H  0.40561049  0.41952263  0.13794975     0.17800
F1160       F  0.38340126  0.41824217  0.07579574    -0.19900
C1161       C  0.68099933  0.44723981  0.13155932    -0.21400
C1162       C  0.69887740  0.43566890  0.16054483    -0.09400
C1163       C  0.73285808  0.42354264  0.15642922     0.29400
C1164       C  0.74878053  0.42404381  0.12421004    -0.21400
C1165       C  0.73111532  0.43615736  0.09536079    -0.09400
C1166       C  0.69681990  0.44743331  0.09926664     0.29400
F1167       F  0.67869367  0.45920735  0.07208765    -0.20000
H1168       H  0.65471586  0.45642915  0.13390139     0.17800
H1169       H  0.77505831  0.41482789  0.12184133     0.17800
F1170       F  0.75083928  0.41128070  0.18347145    -0.19900
C1171       C  0.54318358  0.58981767  0.13452261    -0.21400
C1172       C  0.52717574  0.60607257  0.16259935    -0.09400
C1173       C  0.51179096  0.63825233  0.15804184     0.29400
C1174       C  0.51215849  0.65365011  0.12593982    -0.21400
C1175       C  0.52782809  0.63737433  0.09776251    -0.09400
C1176       C  0.54367945  0.60532131  0.10233283     0.29400
F1177       F  0.55999214  0.58910922  0.07601959    -0.20000
H1178       H  0.55542537  0.56512432  0.13749099     0.17800
H1179       H  0.50011335  0.67845056  0.12318805     0.17800
F1180       F  0.49686414  0.65523943  0.18464125    -0.19900
C1181       C  0.18618605  0.44800427  0.30369375    -0.21400
C1182       C  0.18858380  0.44248954  0.33906292    -0.09400
C1183       C  0.15801362  0.43829977  0.35828744     0.29400
C1184       C  0.12586424  0.43880390  0.34200678    -0.21400
C1185       C  0.12363604  0.44359388  0.30642940    -0.09400
C1186       C  0.15418682  0.44876616  0.28752559     0.29400
F1187       F  0.15331890  0.45448418  0.25328863    -0.20000
H1188       H  0.20923109  0.45163079  0.28833918     0.17800
H1189       H  0.10273244  0.43511906  0.35720282     0.17800
F1190       F  0.15907237  0.43369997  0.39271110    -0.19900
C1191       C  0.12550588  0.26938149  0.48743797    -0.21400
C1192       C  0.12191838  0.23674016  0.50182959    -0.09400
C1193       C  0.15116548  0.22031832  0.51527106     0.29400
C1194       C  0.18315754  0.23664680  0.51484414    -0.21400
C1195       C  0.18666921  0.26951823  0.50099910    -0.09400
C1196       C  0.15754650  0.28568852  0.48692641     0.29400
F1197       F  0.15979574  0.31740190  0.47308984    -0.20000
H1198       H  0.10342442  0.28241628  0.47666929     0.17800
H1199       H  0.20521108  0.22358469  0.52564255     0.17800
F1200       F  0.14888491  0.18869051  0.52928777    -0.19900
C1201       C  0.12263801  0.44382129  0.67808902    -0.21400
C1202       C  0.12068984  0.43631105  0.71314358    -0.09400
C1203       C  0.15135761  0.42947137  0.73106679     0.29400
C1204       C  0.18327237  0.43046954  0.71406638    -0.21400
C1205       C  0.18518824  0.43816975  0.67896436    -0.09400
C1206       C  0.15440582  0.44471350  0.66111711     0.29400
F1207       F  0.15480668  0.45166535  0.62710270    -0.20000
H1208       H  0.09944470  0.44905855  0.66364882     0.17800
H1209       H  0.20652638  0.42519264  0.72839834     0.17800
F1210       F  0.15055890  0.42164681  0.76490484    -0.19900
C1211       C  0.18875137  0.64096852  0.49525887    -0.21400
C1212       C  0.19147801  0.60658771  0.50496088    -0.09400
C1213       C  0.16140934  0.58836558  0.51366540     0.29400
C1214       C  0.12923523  0.60442214  0.51227144    -0.21400
C1215       C  0.12651487  0.63871390  0.50203696    -0.09400
C1216       C  0.15664274  0.65690128  0.49361552     0.29400
F1217       F  0.15517293  0.68988511  0.48304805    -0.20000
H1218       H  0.21150451  0.65551777  0.48845956     0.17800
H1219       H  0.10641343  0.58992341  0.51896813     0.17800
F1220       F  0.16292139  0.55501301  0.52310260    -0.19900
C1221       C  0.51709422  0.06631915  0.34606966    -0.21400
C1222       C  0.52929530  0.09540143  0.32882992    -0.09400
C1223       C  0.54048401  0.09211203  0.29464738     0.29400
C1224       C  0.53926177  0.06035775  0.27814526    -0.21400
C1225       C  0.52703565  0.03132022  0.29536479    -0.09400
C1226       C  0.51603448  0.03451704  0.32961160     0.29400
F1227       F  0.50370877  0.00711995  0.34704664    -0.20000
H1228       H  0.50831680  0.06818757  0.37239165     0.17800
H1229       H  0.54795274  0.05849916  0.25178902     0.17800
F1230       F  0.55193993  0.11963644  0.27687697    -0.19900
C1231       C  0.35851330  0.03781549  0.49381955    -0.21400
C1232       C  0.32240968  0.03533519  0.49558411    -0.09400
C1233       C  0.30287566  0.06561233  0.49903591     0.29400
C1234       C  0.31928074  0.09753521  0.49997868    -0.21400
C1235       C  0.35540968  0.09994291  0.49800339    -0.09400
C1236       C  0.37490479  0.06964017  0.49524319     0.29400
F1237       F  0.40989049  0.07059348  0.49407399    -0.20000
H1238       H  0.37421188  0.01500228  0.49150187     0.17800
H1239       H  0.30365292  0.12040780  0.50239297     0.17800
F1240       F  0.26797406  0.06449722  0.50177772    -0.19900
C1241       C  0.51453595  0.09231545  0.70015670    -0.21400
C1242       C  0.52239236  0.09623268  0.66528934    -0.09400
C1243       C  0.53011347  0.06694102  0.64551962     0.29400
C1244       C  0.53017254  0.03451005  0.66061469    -0.21400
C1245       C  0.52242994  0.03065467  0.69556935    -0.09400
C1246       C  0.51462734  0.05998068  0.71523418     0.29400
F1247       F  0.50748844  0.05759807  0.74920323    -0.20000
H1248       H  0.50866606  0.11442615  0.71596888     0.17800
H1249       H  0.53624422  0.01239748  0.64491482     0.17800
F1250       F  0.53729603  0.06949374  0.61156438    -0.19900
C1251       C  0.73198229  0.09399086  0.49135886    -0.21400
C1252       C  0.69742982  0.09721747  0.50188727    -0.09400
C1253       C  0.67899937  0.06764535  0.51117309     0.29400
C1254       C  0.69490199  0.03561375  0.50985730    -0.21400
C1255       C  0.72942719  0.03233358  0.49934864    -0.09400
C1256       C  0.74794814  0.06189883  0.49012937     0.29400
F1257       F  0.78138978  0.05993148  0.47981221    -0.20000
H1258       H  0.74670677  0.11635000  0.48409860     0.17800
H1259       H  0.68010657  0.01332453  0.51712328     0.17800
F1260       F  0.64544492  0.06944823  0.52113370    -0.19900
loop_ 
_geom_bond_atom_site_label_1 
_geom_bond_atom_site_label_2 
_geom_bond_distance 
_geom_bond_site_symmetry_2 
_ccdc_geom_bond_type 
In1           O3   2.262       .  S
In1           O4   2.242       .  S
In1          O12   2.252       .  S
In1           O6   2.236       .  S
In1           O8   2.250       .  S
In1           O9   2.242       .  S
In1          O10   2.251       .  S
In1          O13   2.256       .  S
C2            O8   1.259       .  A
C2           O10   1.258       .  A
C2           C20   1.463       .  S
O3           C11   1.261       .  A
O4           C11   1.259       .  A
C5           O12   1.262       .  A
C5            O6   1.260       .  A
C5         C1252   1.478       .  S
C7            O9   1.258       .  A
C7           O13   1.258       .  A
C7           C41   1.461       .  S
C11         C674   1.466       .  S
In14         O16   2.238       .  S
In14         O17   2.254       .  S
In14         O25   2.251       .  S
In14         O19   2.244       .  S
In14         O21   2.243       .  S
In14         O22   2.248       .  S
In14         O23   2.251       .  S
In14         O26   2.249       .  S
C15          O21   1.258       .  A
C15          O23   1.259       .  A
C15          C33   1.460       .  S
O16          C24   1.258       .  A
O17          C24   1.259       .  A
C18          O25   1.263       .  A
C18          O19   1.260       .  A
C18        C1242   1.480       .  S
C20          O22   1.258       .  A
C20          O26   1.259       .  A
C24         C349   1.460       .  S
In27         O29   2.249       .  S
In27         O30   2.240       .  S
In27         O38   2.258       .  S
In27         O32   2.241       .  S
In27         O34   2.270       .  S
In27         O35   2.253       .  S
In27         O36   2.247       .  S
In27         O39   2.244       .  S
C28          O34   1.259       .  A
C28          O36   1.256       .  A
C28          C46   1.467       .  S
O29          C37   1.261       .  A
O30          C37   1.259       .  A
C31          O38   1.262       .  A
C31          O32   1.261       .  A
C31        C1235   1.483       .  S
C33          O35   1.259       .  A
C33          O39   1.258       .  A
C37          C89   1.462       .  S
In40         O42   2.252       .  S
In40         O43   2.259       .  S
In40         O51   2.252       .  S
In40         O45   2.243       .  S
In40         O47   2.259       .  S
In40         O48   2.242       .  S
In40         O49   2.242       .  S
In40         O52   2.265       .  S
C41          O47   1.259       .  A
C41          O49   1.257       .  A
O42          C50   1.258       .  A
O43          C50   1.260       .  A
C44          O51   1.261       .  A
C44          O45   1.260       .  A
C44        C1222   1.478       .  S
C46          O48   1.258       .  A
C46          O52   1.261       .  A
C50         C154   1.468       .  S
In53         O55   2.235       .  S
In53         O56   2.259       .  S
In53         O64   2.233       .  S
In53         O58   2.231       .  S
In53         O60   2.247       .  S
In53         O61   2.236       .  S
In53         O62   2.251       .  S
In53         O65   2.254       .  S
C54          O60   1.258       .  A
C54          O62   1.259       .  A
C54          C98   1.460       .  S
O55          C63   1.258       .  A
O56          C63   1.261       .  A
C57          O64   1.260       .  A
C57          O58   1.262       .  A
C57        C1212   1.472       .  S
C59          O61   1.258       .  A
C59          O65   1.258       .  A
C59          C76   1.460       .  S
C63         C206   1.463       .  S
In66         O68   2.261       .  S
In66         O69   2.235       .  S
In66         O77   2.270       .  S
In66         O71   2.243       .  S
In66         O73   2.254       .  S
In66         O74   2.251       .  S
In66         O75   2.260       .  S
In66         O78   2.231       .  S
C67          O73   1.257       .  A
C67          O75   1.258       .  A
C67          C80   1.465       .  S
O68          C76   1.260       .  A
O69          C76   1.256       .  A
C70          O77   1.261       .  A
C70          O71   1.259       .  A
C70        C1205   1.484       .  S
C72          O74   1.263       .  A
C72          O78   1.261       .  A
C72         C362   1.463       .  S
In79         O81   2.241       .  S
In79         O82   2.248       .  S
In79         O90   2.245       .  S
In79         O84   2.239       .  S
In79         O86   2.249       .  S
In79         O87   2.233       .  S
In79         O88   2.257       .  S
In79         O91   2.243       .  S
C80          O86   1.258       .  A
C80          O88   1.259       .  A
O81          C89   1.260       .  A
O82          C89   1.260       .  A
C83          O90   1.261       .  A
C83          O84   1.259       .  A
C83        C1195   1.476       .  S
C85          O87   1.259       .  A
C85          O91   1.260       .  A
C85          C93   1.457       .  S
In92         O94   2.245       .  S
In92         O95   2.246       .  S
In92        O103   2.242       .  S
In92         O97   2.248       .  S
In92         O99   2.252       .  S
In92        O100   2.247       .  S
In92        O101   2.238       .  S
In92        O104   2.243       .  S
C93          O99   1.259       .  A
C93         O101   1.256       .  A
O94         C102   1.260       .  A
O95         C102   1.260       .  A
C96         O103   1.263       .  A
C96          O97   1.261       .  A
C96        C1182   1.480       .  S
C98         O100   1.259       .  A
C98         O104   1.258       .  A
C102        C141   1.463       .  S
In105       O107   2.259       .  S
In105       O108   2.239       .  S
In105       O116   2.232       .  S
In105       O110   2.243       .  S
In105       O112   2.252       .  S
In105       O113   2.251       .  S
In105       O114   2.228       .  S
In105       O117   2.248       .  S
C106        O112   1.261       .  A
C106        O114   1.259       .  A
C106        C124   1.460       .  S
O107        C115   1.260       .  A
O108        C115   1.258       .  A
C109        O116   1.258       .  A
C109        O110   1.261       .  A
C109       C1172   1.473       .  S
C111        O113   1.260       .  A
C111        O117   1.259       .  A
C111        C132   1.463       .  S
C115        C193   1.463       .  S
In118       O120   2.246       .  S
In118       O121   2.264       .  S
In118       O129   2.258       .  S
In118       O123   2.250       .  S
In118       O125   2.256       .  S
In118       O126   2.235       .  S
In118       O127   2.258       .  S
In118       O130   2.263       .  S
C119        O125   1.258       .  A
C119        O127   1.259       .  A
C119        C150   1.466       .  S
O120        C128   1.260       .  A
O121        C128   1.261       .  A
C122        O129   1.262       .  A
C122        O123   1.260       .  A
C122       C1162   1.483       .  S
C124        O126   1.257       .  A
C124        O130   1.260       .  A
C128        C661   1.469       .  S
In131       O133   2.244       .  S
In131       O134   2.246       .  S
In131       O142   2.254       .  S
In131       O136   2.238       .  S
In131       O138   2.250       .  S
In131       O139   2.233       .  S
In131       O140   2.251       .  S
In131       O143   2.260       .  S
C132        O138   1.259       .  A
C132        O140   1.259       .  A
O133        C141   1.260       .  A
O134        C141   1.261       .  A
C135        O142   1.261       .  A
C135        O136   1.260       .  A
C135       C1155   1.479       .  S
C137        O139   1.257       .  A
C137        O143   1.260       .  A
C137        C145   1.460       .  S
In144       O146   2.257       .  S
In144       O147   2.252       .  S
In144       O155   2.249       .  S
In144       O149   2.250       .  S
In144       O151   2.258       .  S
In144       O152   2.256       .  S
In144       O153   2.230       .  S
In144       O156   2.255       .  S
C145        O151   1.261       .  A
C145        O153   1.258       .  A
O146        C154   1.260       .  A
O147        C154   1.260       .  A
C148        O155   1.260       .  A
C148        O149   1.261       .  A
C148       C1142   1.480       .  S
C150        O152   1.259       .  A
C150        O156   1.258       .  A
In157       O159   2.263       .  S
In157       O160   2.243       .  S
In157       O168   2.251       .  S
In157       O162   2.247       .  S
In157       O164   2.245       .  S
In157       O165   2.255       .  S
In157       O166   2.244       .  S
In157       O169   2.244       .  S
C158        O164   1.259       .  A
C158        O166   1.259       .  A
C158        C171   1.460       .  S
O159        C167   1.259       .  A
O160        C167   1.256       .  A
C161        O168   1.262       .  A
C161        O162   1.261       .  A
C161       C1132   1.482       .  S
C163        O165   1.261       .  A
C163        O169   1.259       .  A
C163        C635   1.465       .  S
C167        C189   1.463       .  S
In170       O172   2.247       .  S
In170       O173   2.262       .  S
In170       O181   2.242       .  S
In170       O175   2.240       .  S
In170       O177   2.246       .  S
In170       O178   2.237       .  S
In170       O179   2.250       .  S
In170       O182   2.246       .  S
C171        O177   1.257       .  A
C171        O179   1.259       .  A
O172        C180   1.258       .  A
O173        C180   1.259       .  A
C174        O181   1.262       .  A
C174        O175   1.260       .  A
C174       C1125   1.476       .  S
C176        O178   1.259       .  A
C176        O182   1.261       .  A
C176        C197   1.460       .  S
C180        C375   1.467       .  S
In183       O185   2.236       .  S
In183       O186   2.258       .  S
In183       O194   2.241       .  S
In183       O188   2.264       .  S
In183       O190   2.245       .  S
In183       O191   2.238       .  S
In183       O192   2.250       .  S
In183       O195   2.257       .  S
C184        O190   1.259       .  A
C184        O192   1.259       .  A
C184        C202   1.461       .  S
O185        C193   1.259       .  A
O186        C193   1.261       .  A
C187        O194   1.258       .  A
C187        O188   1.260       .  A
C187       C1112   1.480       .  S
C189        O191   1.258       .  A
C189        O195   1.261       .  A
In196       O198   2.258       .  S
In196       O199   2.236       .  S
In196       O207   2.259       .  S
In196       O201   2.244       .  S
In196       O203   2.248       .  S
In196       O204   2.254       .  S
In196       O205   2.243       .  S
In196       O208   2.245       .  S
C197        O203   1.259       .  A
C197        O205   1.258       .  A
O198        C206   1.260       .  A
O199        C206   1.259       .  A
C200        O207   1.262       .  A
C200        O201   1.259       .  A
C200       C1105   1.482       .  S
C202        O204   1.259       .  A
C202        O208   1.258       .  A
In209       O211   2.249       .  S
In209       O212   2.258       .  S
In209       O220   2.243       .  S
In209       O214   2.253       .  S
In209       O216   2.255       .  S
In209       O217   2.257       .  S
In209       O218   2.244       .  S
In209       O221   2.257       .  S
C210        O216   1.260       .  A
C210        O218   1.259       .  A
C210       C1092   1.480       .  S
O211        C219   1.262       .  A
O212        C219   1.263       .  A
C213        O220   1.261       .  A
C213        O214   1.262       .  A
C213       C1082   1.482       .  S
C215        O217   1.262   1_545  A
C215        O221   1.259   1_545  A
C215       C1232   1.485       .  S
C219       C1102   1.485       .  S
In222       O224   2.251       .  S
In222       O225   2.240       .  S
In222       O233   2.238       .  S
In222       O227   2.255       .  S
In222       O229   2.241       .  S
In222       O230   2.238       .  S
In222       O231   2.249       .  S
In222       O234   2.239       .  S
C223        O229   1.261       .  A
C223        O231   1.260       .  A
C223       C1072   1.480       .  S
O224        C232   1.260       .  A
O225        C232   1.259       .  A
C226        O233   1.259       .  A
C226        O227   1.261       .  A
C226       C1062   1.478       .  S
C228        O230   1.260       .  A
C228        O234   1.261       .  A
C228       C1225   1.475   1_565  S
C232       C1115   1.478       .  S
In235       O237   2.247       .  S
In235       O238   2.236       .  S
In235       O246   2.251       .  S
In235       O240   2.235       .  S
In235       O242   2.268       .  S
In235       O243   2.247       .  S
In235       O244   2.229       .  S
In235       O247   2.249       .  S
C236        O242   1.259       .  A
C236        O244   1.255       .  A
C236        C267   1.460       .  S
O237        C245   1.261       .  A
O238        C245   1.259       .  A
C239        O246   1.262       .  A
C239        O240   1.261       .  A
C239       C1075   1.479       .  S
C241        O243   1.259       .  A
C241        O247   1.259       .  A
C241        C258   1.462   1_565  S
C245        C579   1.460       .  S
In248       O250   2.251   1_556  S
In248       O251   2.251   1_556  S
In248       O259   2.258   1_556  S
In248       O253   2.239       .  S
In248       O255   2.258       .  S
In248       O256   2.229   1_556  S
In248       O257   2.250       .  S
In248       O260   2.260       .  S
C249        O255   1.260       .  A
C249        O257   1.258       .  A
C249        C275   1.466   1_545  S
O250        C258   1.258       .  A
O251        C258   1.258       .  A
C252        O259   1.261   1_556  A
C252        O253   1.261       .  A
C252       C1052   1.480       .  S
C254        O256   1.258   1_556  A
C254        O260   1.262       .  A
C254        C479   1.463   1_556  S
In261       O263   2.246       .  S
In261       O264   2.253   1_556  S
In261       O272   2.246       .  S
In261       O266   2.240   1_556  S
In261       O268   2.237       .  S
In261       O269   2.231   1_556  S
In261       O270   2.257       .  S
In261       O273   2.262   1_556  S
C262        O268   1.256       .  A
C262        O270   1.259       .  A
C262        C280   1.459       .  S
O263        C271   1.261       .  A
O264        C271   1.261   1_554  A
C265        O272   1.262       .  A
C265        O266   1.260   1_556  A
C265       C1045   1.478       .  S
C267        O269   1.257       .  A
C267        O273   1.259       .  A
C271        C440   1.467       .  S
In274       O276   2.259       .  S
In274       O277   2.237       .  S
In274       O285   2.253       .  S
In274       O279   2.242       .  S
In274       O281   2.254       .  S
In274       O282   2.253       .  S
In274       O283   2.250       .  S
In274       O286   2.238       .  S
C275        O281   1.260       .  A
C275        O283   1.259       .  A
O276        C284   1.260       .  A
O277        C284   1.258       .  A
C278        O285   1.262       .  A
C278        O279   1.260       .  A
C278       C1032   1.481       .  S
C280        O282   1.258       .  A
C280        O286   1.257       .  A
C284        C544   1.462       .  S
In287       O289   2.253       .  S
In287       O290   2.260       .  S
In287       O298   2.230   1_556  S
In287       O292   2.256       .  S
In287       O294   2.258   1_556  S
In287       O295   2.248       .  S
In287       O296   2.227   1_556  S
In287       O299   2.244   1_556  S
C288        O294   1.261       .  A
C288        O296   1.259       .  A
C288        C301   1.461   1_545  S
O289        C297   1.256       .  A
O290        C297   1.258       .  A
C291        O298   1.259   1_556  A
C291        O292   1.262       .  A
C291       C1025   1.477       .  S
C293        O295   1.261   1_554  A
C293        O299   1.260       .  A
C293        C505   1.464       .  S
C297        C319   1.464   1_545  S
In300       O302   2.252       .  S
In300       O303   2.241       .  S
In300       O311   2.244       .  S
In300       O305   2.233       .  S
In300       O307   2.266       .  S
In300       O308   2.245       .  S
In300       O309   2.236       .  S
In300       O312   2.248       .  S
C301        O307   1.258       .  A
C301        O309   1.256       .  A
O302        C310   1.261       .  A
O303        C310   1.258       .  A
C304        O311   1.263       .  A
C304        O305   1.261       .  A
C304       C1065   1.477       .  S
C306        O308   1.259       .  A
C306        O312   1.259       .  A
C306        C327   1.460       .  S
C310        C609   1.463       .  S
In313       O315   2.260       .  S
In313       O316   2.241       .  S
In313       O324   2.252       .  S
In313       O318   2.241       .  S
In313       O320   2.262       .  S
In313       O321   2.251       .  S
In313       O322   2.233       .  S
In313       O325   2.251       .  S
C314        O320   1.260       .  A
C314        O322   1.258       .  A
C314        C332   1.461       .  S
O315        C323   1.259       .  A
O316        C323   1.257       .  A
C317        O324   1.261       .  A
C317        O318   1.259       .  A
C317       C1012   1.478       .  S
C319        O321   1.260       .  A
C319        O325   1.260       .  A
C323        C557   1.463       .  S
In326       O328   2.241       .  S
In326       O329   2.251   1_554  S
In326       O337   2.236       .  S
In326       O331   2.255   1_554  S
In326       O333   2.247       .  S
In326       O334   2.232   1_554  S
In326       O335   2.247       .  S
In326       O338   2.265   1_554  S
C327        O333   1.258       .  A
C327        O335   1.259       .  A
O328        C336   1.260   1_554  A
O329        C336   1.260       .  A
C330        O337   1.261       .  A
C330        O331   1.262   1_554  A
C330       C1002   1.479       .  S
C332        O334   1.256       .  A
C332        O338   1.260       .  A
C336        C453   1.462       .  S
In339       O341   2.251       .  S
In339       O342   2.231       .  S
In339       O350   2.239       .  S
In339       O344   2.243       .  S
In339       O346   2.252       .  S
In339       O347   2.253       .  S
In339       O348   2.237       .  S
In339       O351   2.252       .  S
C340        O346   1.259       .  A
C340        O348   1.257       .  A
C340        C384   1.459       .  S
O341        C349   1.261       .  A
O342        C349   1.259       .  A
C343        O350   1.261       .  A
C343        O344   1.261       .  A
C343        C992   1.477       .  S
C345        O347   1.259       .  A
C345        O351   1.259       .  A
C345        C353   1.465       .  S
In352       O354   2.241       .  S
In352       O355   2.257       .  S
In352       O363   2.253       .  S
In352       O357   2.238       .  S
In352       O359   2.251       .  S
In352       O360   2.235       .  S
In352       O361   2.256       .  S
In352       O364   2.269       .  S
C353        O359   1.258       .  A
C353        O361   1.260       .  A
O354        C362   1.259       .  A
O355        C362   1.260       .  A
C356        O363   1.261       .  A
C356        O357   1.260       .  A
C356        C982   1.478       .  S
C358        O360   1.257       .  A
C358        O364   1.260       .  A
C358        C366   1.464       .  S
In365       O367   2.257       .  S
In365       O368   2.246       .  S
In365       O376   2.235       .  S
In365       O370   2.260       .  S
In365       O372   2.268       .  S
In365       O373   2.254       .  S
In365       O374   2.233       .  S
In365       O377   2.256       .  S
C366        O372   1.261       .  A
C366        O374   1.257       .  A
O367        C375   1.261       .  A
O368        C375   1.261       .  A
C369        O376   1.258       .  A
C369        O370   1.262       .  A
C369        C972   1.479       .  S
C371        O373   1.259       .  A
C371        O377   1.258       .  A
C371        C379   1.466       .  S
In378       O380   2.233       .  S
In378       O381   2.259       .  S
In378       O389   2.254       .  S
In378       O383   2.238       .  S
In378       O385   2.259       .  S
In378       O386   2.240       .  S
In378       O387   2.254       .  S
In378       O390   2.251       .  S
C379        O385   1.259       .  A
C379        O387   1.258       .  A
O380        C388   1.258       .  A
O381        C388   1.261       .  A
C382        O389   1.262       .  A
C382        O383   1.260       .  A
C382        C962   1.480       .  S
C384        O386   1.258       .  A
C384        O390   1.259       .  A
C388        C648   1.463       .  S
In391       O393   2.236   1_554  S
In391       O394   2.245   1_554  S
In391       O402   2.240   1_554  S
In391       O396   2.241       .  S
In391       O398   2.252   1_554  S
In391       O399   2.252       .  S
In391       O400   2.240       .  S
In391       O403   2.245       .  S
C392        O398   1.261   1_554  A
C392        O400   1.259       .  A
C392        C945   1.478       .  S
O393        C401   1.261       .  A
O394        C401   1.263       .  A
C395        O402   1.261   1_554  A
C395        O396   1.263       .  A
C395        C952   1.477       .  S
C397        O399   1.262       .  A
C397        O403   1.260       .  A
C397       C1152   1.482       .  S
C401        C985   1.477       .  S
In404       O406   2.235       .  S
In404       O407   2.249       .  S
In404       O415   2.237   1_554  S
In404       O409   2.245       .  S
In404       O411   2.240   1_554  S
In404       O412   2.245   1_554  S
In404       O413   2.246       .  S
In404       O416   2.240   1_554  S
C405        O411   1.262   1_554  A
C405        O413   1.261       .  A
C405       C1055   1.480   1_554  S
O406        C414   1.261       .  A
O407        C414   1.263       .  A
C408        O415   1.260       .  A
C408        O409   1.262   1_556  A
C408       C1022   1.476       .  S
C410        O412   1.262       .  A
C410        O416   1.259       .  A
C410        C995   1.477       .  S
C414       C1145   1.479       .  S
In417       O419   2.247       .  S
In417       O420   2.253       .  S
In417       O428   2.241       .  S
In417       O422   2.260       .  S
In417       O424   2.239   1_455  S
In417       O425   2.272       .  S
In417       O426   2.251   1_455  S
In417       O429   2.231       .  S
C418        O424   1.260       .  A
C418        O426   1.262       .  A
C418        C449   1.463       .  S
O419        C427   1.259       .  A
O420        C427   1.260       .  A
C421        O428   1.258       .  A
C421        O422   1.260       .  A
C421        C932   1.477       .  S
C423        O425   1.262       .  A
C423        O429   1.257       .  A
C423        C431   1.466       .  S
C427        C622   1.464       .  S
In430       O432   2.258   1_556  S
In430       O433   2.247       .  S
In430       O441   2.273       .  S
In430       O435   2.248   1_556  S
In430       O437   2.228   1_556  S
In430       O438   2.253       .  S
In430       O439   2.269   1_556  S
In430       O442   2.257       .  S
C431        O437   1.259       .  A
C431        O439   1.264       .  A
O432        C440   1.261   1_554  A
O433        C440   1.259       .  A
C434        O441   1.259   1_554  A
C434        O435   1.256       .  A
C434        C955   1.480       .  S
C436        O438   1.259       .  A
C436        O442   1.260       .  A
C436        C457   1.468       .  S
In443       O445   2.257       .  S
In443       O446   2.241   1_556  S
In443       O454   2.257   1_556  S
In443       O448   2.245       .  S
In443       O450   2.259       .  S
In443       O451   2.256   1_556  S
In443       O452   2.236       .  S
In443       O455   2.248   1_556  S
C444        O450   1.261       .  A
C444        O452   1.258       .  A
C444        C462   1.463       .  S
O445        C453   1.260       .  A
O446        C453   1.257   1_554  A
C447        O454   1.263   1_556  A
C447        O448   1.261       .  A
C447        C922   1.484       .  S
C449        O451   1.258       .  A
C449        O455   1.258       .  A
In456       O458   2.263       .  S
In456       O459   2.252       .  S
In456       O467   2.256       .  S
In456       O461   2.241       .  S
In456       O463   2.259       .  S
In456       O464   2.240       .  S
In456       O465   2.255       .  S
In456       O468   2.261   1_455  S
C457        O463   1.259       .  A
C457        O465   1.259       .  A
O458        C466   1.260       .  A
O459        C466   1.258       .  A
C460        O467   1.263       .  A
C460        O461   1.260       .  A
C460        C912   1.481       .  S
C462        O464   1.257   1_655  A
C462        O468   1.260       .  A
C466        C570   1.468       .  S
In469       O471   2.259   1_554  S
In469       O472   2.238       .  S
In469       O480   2.237   1_554  S
In469       O474   2.253       .  S
In469       O476   2.251   1_554  S
In469       O477   2.255       .  S
In469       O478   2.234   1_554  S
In469       O481   2.255       .  S
C470        O476   1.259       .  A
C470        O478   1.258       .  A
C470        C514   1.459       .  S
O471        C479   1.259   1_556  A
O472        C479   1.259       .  A
C473        O480   1.259   1_554  A
C473        O474   1.262       .  A
C473        C942   1.478       .  S
C475        O477   1.260       .  A
C475        O481   1.259       .  A
C475        C483   1.466       .  S
In482       O484   2.251       .  S
In482       O485   2.254   1_455  S
In482       O493   2.250       .  S
In482       O487   2.259       .  S
In482       O489   2.258       .  S
In482       O490   2.243       .  S
In482       O491   2.253       .  S
In482       O494   2.265   1_455  S
C483        O489   1.260       .  A
C483        O491   1.258       .  A
O484        C492   1.257       .  A
O485        C492   1.259   1_655  A
C486        O493   1.259       .  A
C486        O487   1.262       .  A
C486        C905   1.483       .  S
C488        O490   1.258   1_655  A
C488        O494   1.261       .  A
C488        C496   1.467       .  S
C492        C596   1.463       .  S
In495       O497   2.250       .  S
In495       O498   2.249   1_554  S
In495       O506   2.243       .  S
In495       O500   2.256       .  S
In495       O502   2.271       .  S
In495       O503   2.249   1_554  S
In495       O504   2.247       .  S
In495       O507   2.245   1_554  S
C496        O502   1.259       .  A
C496        O504   1.257       .  A
O497        C505   1.260       .  A
O498        C505   1.258   1_556  A
C499        O506   1.261       .  A
C499        O500   1.262       .  A
C499        C895   1.483       .  S
C501        O503   1.260       .  A
C501        O507   1.259       .  A
C501        C509   1.461       .  S
In508       O510   2.241   1_455  S
In508       O511   2.255       .  S
In508       O519   2.260       .  S
In508       O513   2.247       .  S
In508       O515   2.247   1_455  S
In508       O516   2.235       .  S
In508       O517   2.244   1_455  S
In508       O520   2.258       .  S
C509        O515   1.260       .  A
C509        O517   1.259       .  A
O510        C518   1.259   1_655  A
O511        C518   1.260       .  A
C512        O519   1.262       .  A
C512        O513   1.260       .  A
C512        C882   1.484       .  S
C514        O516   1.255       .  A
C514        O520   1.260       .  A
C518        C531   1.463       .  S
In521       O523   2.252       .  S
In521       O524   2.241   1_455  S
In521       O532   2.230       .  S
In521       O526   2.262       .  S
In521       O528   2.255       .  S
In521       O529   2.249   1_455  S
In521       O530   2.232       .  S
In521       O533   2.258   1_455  S
C522        O528   1.260       .  A
C522        O530   1.257       .  A
C522        C540   1.459   1_545  S
O523        C531   1.260       .  A
O524        C531   1.260   1_655  A
C525        O532   1.259       .  A
C525        O526   1.263       .  A
C525        C872   1.480       .  S
C527        O529   1.258       .  A
C527        O533   1.258       .  A
C527        C548   1.464   1_545  S
In534       O536   2.236       .  S
In534       O537   2.255       .  S
In534       O545   2.249       .  S
In534       O539   2.246       .  S
In534       O541   2.252       .  S
In534       O542   2.233       .  S
In534       O543   2.251       .  S
In534       O546   2.255       .  S
C535        O541   1.259       .  A
C535        O543   1.258       .  A
C535        C566   1.464       .  S
O536        C544   1.259       .  A
O537        C544   1.260       .  A
C538        O545   1.262       .  A
C538        O539   1.260       .  A
C538       C1095   1.480       .  S
C540        O542   1.257       .  A
C540        O546   1.260       .  A
In547       O549   2.236       .  S
In547       O550   2.255       .  S
In547       O558   2.256       .  S
In547       O552   2.240       .  S
In547       O554   2.255       .  S
In547       O555   2.233       .  S
In547       O556   2.250       .  S
In547       O559   2.264       .  S
C548        O554   1.259       .  A
C548        O556   1.259       .  A
O549        C557   1.259       .  A
O550        C557   1.261       .  A
C551        O558   1.261       .  A
C551        O552   1.260       .  A
C551        C862   1.478       .  S
C553        O555   1.257       .  A
C553        O559   1.261       .  A
C553        C561   1.462       .  S
In560       O562   2.249       .  S
In560       O563   2.255       .  S
In560       O571   2.252       .  S
In560       O565   2.255       .  S
In560       O567   2.263   1_455  S
In560       O568   2.255       .  S
In560       O569   2.235       .  S
In560       O572   2.254       .  S
C561        O567   1.260       .  A
C561        O569   1.257   1_655  A
O562        C570   1.261       .  A
O563        C570   1.261       .  A
C564        O571   1.260       .  A
C564        O565   1.262       .  A
C564        C852   1.484       .  S
C566        O568   1.259       .  A
C566        O572   1.257       .  A
In573       O575   2.262       .  S
In573       O576   2.249       .  S
In573       O584   2.238       .  S
In573       O578   2.244       .  S
In573       O580   2.250       .  S
In573       O581   2.240       .  S
In573       O582   2.241       .  S
In573       O585   2.249       .  S
C574        O580   1.258       .  A
C574        O582   1.259       .  A
C574        C613   1.459       .  S
O575        C583   1.258       .  A
O576        C583   1.258       .  A
C577        O584   1.261       .  A
C577        O578   1.263       .  A
C577       C1085   1.478       .  S
C579        O581   1.259       .  A
C579        O585   1.259       .  A
C583        C592   1.465   1_565  S
In586       O588   2.240   1_455  S
In586       O589   2.246       .  S
In586       O597   2.246       .  S
In586       O591   2.259       .  S
In586       O593   2.252   1_455  S
In586       O594   2.247       .  S
In586       O595   2.252   1_455  S
In586       O598   2.264       .  S
C587        O593   1.259       .  A
C587        O595   1.258       .  A
C587        C605   1.463   1_545  S
O588        C596   1.261   1_655  A
O589        C596   1.262       .  A
C590        O597   1.261       .  A
C590        O591   1.260       .  A
C590        C842   1.482       .  S
C592        O594   1.256       .  A
C592        O598   1.260       .  A
In599       O601   2.244       .  S
In599       O602   2.243       .  S
In599       O610   2.261       .  S
In599       O604   2.226       .  S
In599       O606   2.267       .  S
In599       O607   2.254       .  S
In599       O608   2.245       .  S
In599       O611   2.251       .  S
C600        O606   1.257       .  A
C600        O608   1.257       .  A
C600        C618   1.464       .  S
O601        C609   1.262       .  A
O602        C609   1.261       .  A
C603        O610   1.262       .  A
C603        O604   1.259       .  A
C603        C835   1.478       .  S
C605        O607   1.259       .  A
C605        O611   1.257       .  A
In612       O614   2.249       .  S
In612       O615   2.245       .  S
In612       O623   2.247       .  S
In612       O617   2.248       .  S
In612       O619   2.256       .  S
In612       O620   2.239       .  S
In612       O621   2.241       .  S
In612       O624   2.267   1_455  S
C613        O619   1.258       .  A
C613        O621   1.256       .  A
O614        C622   1.261       .  A
O615        C622   1.261       .  A
C616        O623   1.261       .  A
C616        O617   1.262       .  A
C616        C822   1.481       .  S
C618        O620   1.256   1_655  A
C618        O624   1.260       .  A
In625       O627   2.242       .  S
In625       O628   2.250       .  S
In625       O636   2.257       .  S
In625       O630   2.230       .  S
In625       O632   2.259       .  S
In625       O633   2.236       .  S
In625       O634   2.248       .  S
In625       O637   2.249       .  S
C626        O632   1.259       .  A
C626        O634   1.258       .  A
C626        C644   1.463       .  S
O627        C635   1.260       .  A
O628        C635   1.260       .  A
C629        O636   1.262       .  A
C629        O630   1.258       .  A
C629        C812   1.476       .  S
C631        O633   1.258       .  A
C631        O637   1.259       .  A
C631        C652   1.458       .  S
In638       O640   2.257       .  S
In638       O641   2.238       .  S
In638       O649   2.246       .  S
In638       O643   2.238       .  S
In638       O645   2.247       .  S
In638       O646   2.245       .  S
In638       O647   2.242       .  S
In638       O650   2.253       .  S
C639        O645   1.259       .  A
C639        O647   1.258       .  A
C639        C670   1.460       .  S
O640        C648   1.260       .  A
O641        C648   1.259       .  A
C642        O649   1.261       .  A
C642        O643   1.259       .  A
C642        C802   1.476       .  S
C644        O646   1.259       .  A
C644        O650   1.259       .  A
In651       O653   2.265       .  S
In651       O654   2.247       .  S
In651       O662   2.249       .  S
In651       O656   2.243       .  S
In651       O658   2.253       .  S
In651       O659   2.247       .  S
In651       O660   2.233       .  S
In651       O663   2.257       .  S
C652        O658   1.261       .  A
C652        O660   1.258       .  A
O653        C661   1.261       .  A
O654        C661   1.259       .  A
C655        O662   1.261       .  A
C655        O656   1.260       .  A
C655        C792   1.478       .  S
C657        O659   1.259       .  A
C657        O663   1.258       .  A
C657        C665   1.464       .  S
In664       O666   2.246       .  S
In664       O667   2.261       .  S
In664       O675   2.242       .  S
In664       O669   2.238       .  S
In664       O671   2.258       .  S
In664       O672   2.245       .  S
In664       O673   2.244       .  S
In664       O676   2.248       .  S
C665        O671   1.260       .  A
C665        O673   1.259       .  A
O666        C674   1.258       .  A
O667        C674   1.260       .  A
C668        O675   1.262       .  A
C668        O669   1.260       .  A
C668        C782   1.474       .  S
C670        O672   1.258       .  A
C670        O676   1.259       .  A
In677       O679   2.251       .  S
In677       O680   2.246       .  S
In677       O688   2.236       .  S
In677       O682   2.245       .  S
In677       O684   2.233   1_455  S
In677       O685   2.245       .  S
In677       O686   2.226   1_455  S
In677       O689   2.247       .  S
C678        O684   1.263       .  A
C678        O686   1.262       .  A
C678        C785   1.474       .  S
O679        C687   1.259       .  A
O680        C687   1.263       .  A
C681        O688   1.258       .  A
C681        O682   1.260       .  A
C681       C1192   1.475       .  S
C683        O685   1.263       .  A
C683        O689   1.260       .  A
C683        C875   1.481       .  S
C687        C845   1.482       .  S
In690       O692   2.246       .  S
In690       O693   2.250       .  S
In690       O701   2.232       .  S
In690       O695   2.263       .  S
In690       O697   2.233   1_455  S
In690       O698   2.249       .  S
In690       O699   2.240   1_455  S
In690       O702   2.242       .  S
C691        O697   1.263       .  A
C691        O699   1.261       .  A
C691        C795   1.475       .  S
O692        C700   1.258       .  A
O693        C700   1.261       .  A
C694        O701   1.259       .  A
C694        O695   1.262       .  A
C694       C1185   1.481       .  S
C696        O698   1.263       .  A
C696        O702   1.262       .  A
C696        C902   1.480       .  S
C700        C935   1.478       .  S
In703       O705   2.232   1_455  S
In703       O706   2.245   1_455  S
In703       O714   2.258       .  S
In703       O708   2.243       .  S
In703       O710   2.250       .  S
In703       O711   2.242       .  S
In703       O712   2.243       .  S
In703       O715   2.230       .  S
C704        O710   1.262       .  A
C704        O712   1.261       .  A
C704        C855   1.480       .  S
O705        C713   1.259       .  A
O706        C713   1.261       .  A
C707        O714   1.261       .  A
C707        O708   1.261       .  A
C707        C825   1.482       .  S
C709        O711   1.261       .  A
C709        O715   1.261       .  A
C709       C1215   1.474       .  S
C713        C815   1.475       .  S
In716       O718   2.240       .  S
In716       O719   2.254       .  S
In716       O727   2.250   1_455  S
In716       O721   2.233   1_455  S
In716       O723   2.240       .  S
In716       O724   2.264       .  S
In716       O725   2.247       .  S
In716       O728   2.239       .  S
C717        O723   1.261       .  A
C717        O725   1.260       .  A
C717       C1202   1.479       .  S
O718        C726   1.259       .  A
O719        C726   1.263       .  A
C720        O727   1.262       .  A
C720        O721   1.261       .  A
C720        C805   1.477       .  S
C722        O724   1.263       .  A
C722        O728   1.260       .  A
C722        C885   1.484       .  S
C726        C915   1.481       .  S
In729       O731   2.243       .  S
In729       O732   2.251       .  S
In729       O740   2.246       .  S
In729       O734   2.249       .  S
In729       O736   2.237       .  S
In729       O737   2.239       .  S
In729       O738   2.249       .  S
In729       O741   2.243       .  S
C730        O736   1.263       .  A
C730        O738   1.261       .  A
C730        C832   1.479       .  S
O731        C739   1.260       .  A
O732        C739   1.262       .  A
C733        O740   1.260       .  A
C733        O734   1.262       .  A
C733        C865   1.481       .  S
C735        O737   1.262       .  A
C735        O741   1.260       .  A
C735       C1255   1.478   1_565  S
C739       C1135   1.481       .  S
In742       O744   2.242       .  S
In742       O745   2.248       .  S
In742       O753   2.248       .  S
In742       O747   2.257   1_554  S
In742       O749   2.257       .  S
In742       O750   2.246   1_554  S
In742       O751   2.248   1_554  S
In742       O754   2.253   1_554  S
C743        O749   1.263       .  A
C743        O751   1.260   1_554  A
C743        C892   1.484       .  S
O744        C752   1.262       .  A
O745        C752   1.262       .  A
C746        O753   1.259       .  A
C746        O747   1.262   1_554  A
C746        C925   1.483       .  S
C748        O750   1.261       .  A
C748        O754   1.260       .  A
C748        C965   1.479       .  S
C752       C1165   1.481       .  S
In755       O757   2.242   1_554  S
In755       O758   2.241   1_554  S
In755       O766   2.232       .  S
In755       O760   2.246       .  S
In755       O762   2.251       .  S
In755       O763   2.254       .  S
In755       O764   2.245   1_554  S
In755       O767   2.228       .  S
C756        O762   1.261   1_556  A
C756        O764   1.261       .  A
C756       C1042   1.481       .  S
O757        C765   1.260       .  A
O758        C765   1.261       .  A
C759        O766   1.261       .  A
C759        O760   1.261       .  A
C759       C1005   1.477       .  S
C761        O763   1.259       .  A
C761        O767   1.259       .  A
C761       C1175   1.474       .  S
C765        C975   1.478       .  S
In768       O770   2.228       .  S
In768       O771   2.254       .  S
In768       O779   2.251       .  S
In768       O773   2.250       .  S
In768       O775   2.241       .  S
In768       O776   2.261       .  S
In768       O777   2.245       .  S
In768       O780   2.233       .  S
C769        O775   1.261       .  A
C769        O777   1.261       .  A
C769       C1015   1.477       .  S
O770        C778   1.259       .  A
O771        C778   1.263       .  A
C772        O779   1.260       .  A
C772        O773   1.261       .  A
C772       C1035   1.482       .  S
C774        O776   1.263       .  A
C774        O780   1.259       .  A
C774       C1245   1.482   1_565  S
C778       C1122   1.476       .  S
C781        C782   1.403       .  A
C781        C786   1.396       .  A
C781        H788   1.083       .  S
C782        C783   1.407       .  A
C783        C784   1.396       .  A
C783        F790   1.358       .  S
C784        C785   1.404       .  A
C784        H789   1.083       .  S
C785        C786   1.407       .  A
C786        F787   1.358       .  S
C791        C792   1.405       .  A
C791        C796   1.396       .  A
C791        H798   1.083       .  S
C792        C793   1.407       .  A
C793        C794   1.398       .  A
C793        F800   1.357       .  S
C794        C795   1.405       .  A
C794        H799   1.083       .  S
C795        C796   1.405       .  A
C796        F797   1.357       .  S
C801        C802   1.404       .  A
C801        C806   1.398       .  A
C801        H808   1.083       .  S
C802        C803   1.407       .  A
C803        C804   1.396       .  A
C803        F810   1.358       .  S
C804        C805   1.404       .  A
C804        H809   1.083       .  S
C805        C806   1.407       .  A
C806        F807   1.357       .  S
C811        C812   1.405       .  A
C811        C816   1.395       .  A
C811        H818   1.082       .  S
C812        C813   1.406       .  A
C813        C814   1.398       .  A
C813        F820   1.357       .  S
C814        C815   1.406       .  A
C814        H819   1.083       .  S
C815        C816   1.405       .  A
C816        F817   1.358       .  S
C821        C822   1.405       .  A
C821        C826   1.399       .  A
C821        H828   1.082       .  S
C822        C823   1.408       .  A
C823        C824   1.401       .  A
C823        F830   1.358       .  S
C824        C825   1.406       .  A
C824        H829   1.082       .  S
C825        C826   1.407       .  A
C826        F827   1.357       .  S
C831        C832   1.403       .  A
C831        C836   1.394       .  A
C831        H838   1.083       .  S
C832        C833   1.410       .  A
C833        C834   1.401       .  A
C833        F840   1.357       .  S
C834        C835   1.405       .  A
C834        H839   1.083       .  S
C835        C836   1.408       .  A
C836        F837   1.358       .  S
C841        C842   1.406       .  A
C841        C846   1.402       .  A
C841        H848   1.083       .  S
C842        C843   1.407       .  A
C843        C844   1.396       .  A
C843        F850   1.357       .  S
C844        C845   1.403       .  A
C844        H849   1.083       .  S
C845        C846   1.410       .  A
C846        F847   1.358       .  S
C851        C852   1.405       .  A
C851        C856   1.398       .  A
C851        H858   1.082       .  S
C852        C853   1.410       .  A
C853        C854   1.401       .  A
C853        F860   1.358       .  S
C854        C855   1.405       .  A
C854        H859   1.083       .  S
C855        C856   1.407       .  A
C856        F857   1.357       .  S
C861        C862   1.404       .  A
C861        C866   1.397       .  A
C861        H868   1.083       .  S
C862        C863   1.407       .  A
C863        C864   1.400       .  A
C863        F870   1.358       .  S
C864        C865   1.407       .  A
C864        H869   1.083       .  S
C865        C866   1.407       .  A
C866        F867   1.357       .  S
C871        C872   1.404       .  A
C871        C876   1.401       .  A
C871        H878   1.084       .  S
C872        C873   1.408       .  A
C873        C874   1.396       .  A
C873        F880   1.357       .  S
C874        C875   1.403       .  A
C874        H879   1.084       .  S
C875        C876   1.410       .  A
C876        F877   1.357       .  S
C881        C882   1.404       .  A
C881        C886   1.400       .  A
C881        H888   1.083       .  S
C882        C883   1.409       .  A
C883        C884   1.401       .  A
C883        F890   1.357       .  S
C884        C885   1.404       .  A
C884        H889   1.082       .  S
C885        C886   1.409       .  A
C886        F887   1.358       .  S
C891        C892   1.406       .  A
C891        C896   1.402       .  A
C891        H898   1.082       .  S
C892        C893   1.409       .  A
C893        C894   1.398       .  A
C893        F900   1.357       .  S
C894        C895   1.404       .  A
C894        H899   1.083       .  S
C895        C896   1.409       .  A
C896        F897   1.358       .  S
C901        C902   1.404       .  A
C901        C906   1.400       .  A
C901        H908   1.083   1_455  S
C902        C903   1.407       .  A
C903        C904   1.399       .  A
C903        F910   1.357       .  S
C904        C905   1.405       .  A
C904        H909   1.083       .  S
C905        C906   1.409       .  A
C906        F907   1.357   1_455  S
C911        C912   1.404       .  A
C911        C916   1.399       .  A
C911        H918   1.083       .  S
C912        C913   1.408       .  A
C913        C914   1.398       .  A
C913        F920   1.357       .  S
C914        C915   1.403       .  A
C914        H919   1.083       .  S
C915        C916   1.410       .  A
C916        F917   1.358       .  S
C921        C922   1.405   1_554  A
C921        C926   1.401       .  A
C921        H928   1.083       .  S
C922        C923   1.409       .  A
C923        C924   1.400       .  A
C923        F930   1.357       .  S
C924        C925   1.404   1_556  A
C924        H929   1.083       .  S
C925        C926   1.409       .  A
C926        F927   1.357       .  S
C931        C932   1.404       .  A
C931        C936   1.399       .  A
C931        H938   1.083   1_455  S
C932        C933   1.407       .  A
C933        C934   1.397       .  A
C933        F940   1.357       .  S
C934        C935   1.403       .  A
C934        H939   1.083       .  S
C935        C936   1.409       .  A
C936        F937   1.358   1_455  S
C941        C942   1.404       .  A
C941        C946   1.397       .  A
C941        H948   1.083       .  S
C942        C943   1.409   1_554  A
C943        C944   1.398       .  A
C943        F950   1.358       .  S
C944        C945   1.404   1_556  A
C944        H949   1.083       .  S
C945        C946   1.408       .  A
C946        F947   1.357       .  S
C951        C952   1.406   1_556  A
C951        C956   1.400       .  A
C951        H958   1.084       .  S
C952        C953   1.405       .  A
C953        C954   1.397       .  A
C953        F960   1.358       .  S
C954        C955   1.405       .  A
C954        H959   1.084       .  S
C955        C956   1.407   1_554  A
C956        F957   1.357       .  S
C961        C962   1.405       .  A
C961        C966   1.400       .  A
C961        H968   1.083       .  S
C962        C963   1.408       .  A
C963        C964   1.397       .  A
C963        F970   1.357       .  S
C964        C965   1.403       .  A
C964        H969   1.083       .  S
C965        C966   1.408       .  A
C966        F967   1.357       .  S
C971        C972   1.405       .  A
C971        C976   1.399       .  A
C971        H978   1.083       .  S
C972        C973   1.408       .  A
C973        C974   1.396       .  A
C973        F980   1.358       .  S
C974        C975   1.403       .  A
C974        H979   1.083       .  S
C975        C976   1.408       .  A
C976        F977   1.358       .  S
C981        C982   1.405       .  A
C981        C986   1.397       .  A
C981        H988   1.083       .  S
C982        C983   1.407       .  A
C983        C984   1.398       .  A
C983        F990   1.358       .  S
C984        C985   1.405       .  A
C984        H989   1.084       .  S
C985        C986   1.406       .  A
C986        F987   1.357       .  S
C991        C992   1.404       .  A
C991        C996   1.397       .  A
C991        H998   1.083       .  S
C992        C993   1.407       .  A
C993        C994   1.396       .  A
C993       F1000   1.357       .  S
C994        C995   1.403       .  A
C994        H999   1.083       .  S
C995        C996   1.409       .  A
C996        F997   1.358       .  S
C1001      C1002   1.406       .  A
C1001      C1006   1.401       .  A
C1001      H1008   1.082       .  S
C1002      C1003   1.406       .  A
C1003      C1004   1.394       .  A
C1003      F1010   1.357       .  S
C1004      C1005   1.403       .  A
C1004      H1009   1.082       .  S
C1005      C1006   1.408       .  A
C1006      F1007   1.358       .  S
C1011      C1012   1.405       .  A
C1011      C1016   1.398       .  A
C1011      H1018   1.083       .  S
C1012      C1013   1.408       .  A
C1013      C1014   1.397       .  A
C1013      F1020   1.357       .  S
C1014      C1015   1.404       .  A
C1014      H1019   1.083       .  S
C1015      C1016   1.407       .  A
C1016      F1017   1.357       .  S
C1021      C1022   1.406       .  A
C1021      C1026   1.398       .  A
C1021      H1028   1.083       .  S
C1022      C1023   1.405   1_556  A
C1023      C1024   1.396       .  A
C1023      F1030   1.357       .  S
C1024      C1025   1.405   1_554  A
C1024      H1029   1.083       .  S
C1025      C1026   1.407       .  A
C1026      F1027   1.357       .  S
C1031      C1032   1.404       .  A
C1031      C1036   1.399       .  A
C1031      H1038   1.084       .  S
C1032      C1033   1.408       .  A
C1033      C1034   1.399       .  A
C1033      F1040   1.358       .  S
C1034      C1035   1.405       .  A
C1034      H1039   1.083       .  S
C1035      C1036   1.408       .  A
C1036      F1037   1.357       .  S
C1041      C1042   1.405       .  A
C1041      C1046   1.398       .  A
C1041      H1048   1.083       .  S
C1042      C1043   1.408   1_556  A
C1043      C1044   1.399       .  A
C1043      F1050   1.357       .  S
C1044      C1045   1.406   1_554  A
C1044      H1049   1.082       .  S
C1045      C1046   1.406       .  A
C1046      F1047   1.357       .  S
C1051      C1052   1.404       .  A
C1051      C1056   1.396       .  A
C1051      H1058   1.082       .  S
C1052      C1053   1.408   1_556  A
C1053      C1054   1.401       .  A
C1053      F1060   1.358       .  S
C1054      C1055   1.406   1_554  A
C1054      H1059   1.083       .  S
C1055      C1056   1.406       .  A
C1056      F1057   1.357       .  S
C1061      C1062   1.404       .  A
C1061      C1066   1.398       .  A
C1061      H1068   1.083       .  S
C1062      C1063   1.408       .  A
C1063      C1064   1.397       .  A
C1063      F1070   1.357       .  S
C1064      C1065   1.403       .  A
C1064      H1069   1.084       .  S
C1065      C1066   1.409       .  A
C1066      F1067   1.358       .  S
C1071      C1072   1.406       .  A
C1071      C1076   1.400       .  A
C1071      H1078   1.083       .  S
C1072      C1073   1.407       .  A
C1073      C1074   1.396       .  A
C1073      F1080   1.357       .  S
C1074      C1075   1.404       .  A
C1074      H1079   1.083       .  S
C1075      C1076   1.408       .  A
C1076      F1077   1.358       .  S
C1081      C1082   1.406       .  A
C1081      C1086   1.400       .  A
C1081      H1088   1.083       .  S
C1082      C1083   1.408       .  A
C1083      C1084   1.397       .  A
C1083      F1090   1.357       .  S
C1084      C1085   1.403       .  A
C1084      H1089   1.083       .  S
C1085      C1086   1.408       .  A
C1086      F1087   1.358       .  S
C1091      C1092   1.405       .  A
C1091      C1096   1.398       .  A
C1091      H1098   1.083       .  S
C1092      C1093   1.408       .  A
C1093      C1094   1.399       .  A
C1093      F1100   1.357       .  S
C1094      C1095   1.406       .  A
C1094      H1099   1.083       .  S
C1095      C1096   1.407       .  A
C1096      F1097   1.357       .  S
C1101      C1102   1.405       .  A
C1101      C1106   1.401       .  A
C1101      H1108   1.082       .  S
C1102      C1103   1.409       .  A
C1103      C1104   1.400       .  A
C1103      F1110   1.357       .  S
C1104      C1105   1.404       .  A
C1104      H1109   1.083       .  S
C1105      C1106   1.409       .  A
C1106      F1107   1.358       .  S
C1111      C1112   1.405       .  A
C1111      C1116   1.401       .  A
C1111      H1118   1.083       .  S
C1112      C1113   1.407       .  A
C1113      C1114   1.397       .  A
C1113      F1120   1.358       .  S
C1114      C1115   1.404       .  A
C1114      H1119   1.083       .  S
C1115      C1116   1.407       .  A
C1116      F1117   1.357       .  S
C1121      C1122   1.405       .  A
C1121      C1126   1.395       .  A
C1121      H1128   1.083       .  S
C1122      C1123   1.406       .  A
C1123      C1124   1.398       .  A
C1123      F1130   1.357       .  S
C1124      C1125   1.406       .  A
C1124      H1129   1.083       .  S
C1125      C1126   1.405       .  A
C1126      F1127   1.357       .  S
C1131      C1132   1.405       .  A
C1131      C1136   1.399       .  A
C1131      H1138   1.083       .  S
C1132      C1133   1.409       .  A
C1133      C1134   1.400       .  A
C1133      F1140   1.357       .  S
C1134      C1135   1.405       .  A
C1134      H1139   1.083       .  S
C1135      C1136   1.408       .  A
C1136      F1137   1.357       .  S
C1141      C1142   1.406       .  A
C1141      C1146   1.400       .  A
C1141      H1148   1.083       .  S
C1142      C1143   1.407       .  A
C1143      C1144   1.397       .  A
C1143      F1150   1.357       .  S
C1144      C1145   1.405       .  A
C1144      H1149   1.083       .  S
C1145      C1146   1.407       .  A
C1146      F1147   1.358       .  S
C1151      C1152   1.406       .  A
C1151      C1156   1.399       .  A
C1151      H1158   1.083       .  S
C1152      C1153   1.407       .  A
C1153      C1154   1.398       .  A
C1153      F1160   1.357       .  S
C1154      C1155   1.405       .  A
C1154      H1159   1.083       .  S
C1155      C1156   1.407       .  A
C1156      F1157   1.357       .  S
C1161      C1162   1.406       .  A
C1161      C1166   1.400       .  A
C1161      H1168   1.083       .  S
C1162      C1163   1.408       .  A
C1163      C1164   1.399       .  A
C1163      F1170   1.357       .  S
C1164      C1165   1.405       .  A
C1164      H1169   1.083       .  S
C1165      C1166   1.408       .  A
C1166      F1167   1.357       .  S
C1171      C1172   1.406       .  A
C1171      C1176   1.398       .  A
C1171      H1178   1.082       .  S
C1172      C1173   1.404       .  A
C1173      C1174   1.393       .  A
C1173      F1180   1.357       .  S
C1174      C1175   1.404       .  A
C1174      H1179   1.082       .  S
C1175      C1176   1.408       .  A
C1176      F1177   1.358       .  S
C1181      C1182   1.402       .  A
C1181      C1186   1.395       .  A
C1181      H1188   1.083       .  S
C1182      C1183   1.410       .  A
C1183      C1184   1.402       .  A
C1183      F1190   1.358       .  S
C1184      C1185   1.406       .  A
C1184      H1189   1.083       .  S
C1185      C1186   1.408       .  A
C1186      F1187   1.357       .  S
C1191      C1192   1.404       .  A
C1191      C1196   1.397       .  A
C1191      H1198   1.083       .  S
C1192      C1193   1.407       .  A
C1193      C1194   1.395       .  A
C1193      F1200   1.357       .  S
C1194      C1195   1.403       .  A
C1194      H1199   1.083       .  S
C1195      C1196   1.408       .  A
C1196      F1197   1.357       .  S
C1201      C1202   1.403       .  A
C1201      C1206   1.396       .  A
C1201      H1208   1.083       .  S
C1202      C1203   1.408       .  A
C1203      C1204   1.402       .  A
C1203      F1210   1.358       .  S
C1204      C1205   1.406       .  A
C1204      H1209   1.083       .  S
C1205      C1206   1.408       .  A
C1206      F1207   1.357       .  S
C1211      C1212   1.402       .  A
C1211      C1216   1.393       .  A
C1211      H1218   1.083       .  S
C1212      C1213   1.408       .  A
C1213      C1214   1.397       .  A
C1213      F1220   1.358       .  S
C1214      C1215   1.405       .  A
C1214      H1219   1.083       .  S
C1215      C1216   1.406       .  A
C1216      F1217   1.357       .  S
C1221      C1222   1.405       .  A
C1221      C1226   1.398       .  A
C1221      H1228   1.083       .  S
C1222      C1223   1.407       .  A
C1223      C1224   1.397       .  A
C1223      F1230   1.357       .  S
C1224      C1225   1.404       .  A
C1224      H1229   1.083       .  S
C1225      C1226   1.407       .  A
C1226      F1227   1.358       .  S
C1231      C1232   1.404       .  A
C1231      C1236   1.399       .  A
C1231      H1238   1.082       .  S
C1232      C1233   1.410       .  A
C1233      C1234   1.402       .  A
C1233      F1240   1.357       .  S
C1234      C1235   1.405       .  A
C1234      H1239   1.083       .  S
C1235      C1236   1.408       .  A
C1236      F1237   1.357       .  S
C1241      C1242   1.403       .  A
C1241      C1246   1.397       .  A
C1241      H1248   1.083       .  S
C1242      C1243   1.409       .  A
C1243      C1244   1.401       .  A
C1243      F1250   1.358       .  S
C1244      C1245   1.405       .  A
C1244      H1249   1.082       .  S
C1245      C1246   1.409       .  A
C1246      F1247   1.357       .  S
C1251      C1252   1.405       .  A
C1251      C1256   1.399       .  A
C1251      H1258   1.083       .  S
C1252      C1253   1.408       .  A
C1253      C1254   1.396       .  A
C1253      F1260   1.357       .  S
C1254      C1255   1.403       .  A
C1254      H1259   1.082       .  S
C1255      C1256   1.409       .  A
C1256      F1257   1.358       .  S
