geometry optimzed in LAMMPS
_audit_creation_date              2020-11-30 
_audit_creation_method            'lammps2cif' 
_symmetry_space_group_name_H-M    'P1' 
_symmetry_Int_Tables_number       1 
_symmetry_cell_setting            triclinic 
loop_ 
_symmetry_equiv_pos_as_xyz 
  x,y,z 
_cell_length_a                    41.7567351 
_cell_length_b                    40.7540937515951 
_cell_length_c                    26.12677346979013 
_cell_angle_alpha                 87.22855655646518 
_cell_angle_beta                  87.4336217853449 
_cell_angle_gamma                 119.9402375606442 
loop_ 
_atom_site_label 
_atom_site_type_symbol 
_atom_site_fract_x 
_atom_site_fract_y 
_atom_site_fract_z 
_atom_site_charge 
O1          O  0.80708074  0.31957937  0.09104936    -0.81100
O2          O  0.82070030  0.32677975  0.32458444    -0.65800
O3          O  0.83453182  0.35174796  0.18103169    -1.12400
C4          C  0.87079885  0.25851393  0.16907197     1.05800
O5          O  0.86235760  0.30763673  0.33054359    -0.79000
O6          O  0.90905818  0.32132456  0.24987330    -0.66600
Ni7        Ni  0.79479250  0.34420984  0.14262828     1.34900
C8          C  0.92084890  0.35227651  0.22227441     0.84600
O9          O  0.81333776  0.37876592  0.26139994    -0.79500
O10         O  0.78123573  0.36993784  0.19064174    -0.89800
C11         C  0.84301813  0.32087254  0.34987494     0.84100
O12         O  0.75881145  0.29539459  0.17442814    -0.68000
O13         O  0.86266294  0.24996859  0.21735260    -0.87300
C14         C  0.74950937  0.28588115  0.22198043     0.85000
C15         C  0.79376715  0.38652472  0.23143118     1.06500
H16         H  0.81095168  0.27568469  0.23080489     0.38300
O17         O  0.83456864  0.29820803  0.23388668    -1.09900
O18         O  0.90206897  0.35697041  0.18777280    -0.66600
Ni19       Ni  0.85355894  0.31991375  0.16519470     1.26300
O20         O  0.77163133  0.30288403  0.25588980    -0.66800
O21         O  0.87195148  0.28741865  0.14697573    -0.79100
C22         C  0.83925487  0.33207665  0.06894035     0.84300
O23         O  0.86690225  0.34131303  0.09563193    -0.66300
Ni24       Ni  0.86119597  0.28014658  0.27200868     1.27400
Ni25       Ni  0.82469947  0.33825971  0.25217935     1.26100
H26         H  0.85395208  0.37802503  0.17504371     0.38900
O27         O  0.80997060  0.32220209  0.58876081    -0.81100
O28         O  0.81924014  0.32705178  0.82335017    -0.65800
O29         O  0.83634739  0.35256102  0.67989469    -1.12400
C30         C  0.87120872  0.25816290  0.66903760     1.05800
O31         O  0.85611293  0.30224675  0.83267401    -0.79000
O32         O  0.90641455  0.32062966  0.75504361    -0.66600
Ni33       Ni  0.79715470  0.34611265  0.64086890     1.34900
C34         C  0.91952443  0.35064468  0.72495966     0.84600
O35         O  0.81619397  0.38077206  0.75921500    -0.79500
O36         O  0.78335550  0.37153539  0.68929322    -0.89800
C37         C  0.83810982  0.31733983  0.85057702     0.84100
O38         O  0.76064615  0.29683307  0.67155754    -0.68000
O39         O  0.86408674  0.25030843  0.71745578    -0.87300
C40         C  0.75073999  0.28767398  0.71908728     0.85000
C41         C  0.79690836  0.38886754  0.72925733     1.06500
H42         H  0.80954908  0.27531411  0.72954085     0.38300
O43         O  0.83344289  0.29733981  0.73306783    -1.09900
O44         O  0.90220362  0.35476609  0.68792695    -0.66600
Ni45       Ni  0.85367346  0.31935566  0.66448614     1.26300
O46         O  0.77231078  0.30521582  0.75316222    -0.66800
O47         O  0.87024516  0.28559850  0.64618993    -0.79100
C48         C  0.84247921  0.33485886  0.56775392     0.84300
O49         O  0.86907879  0.34179920  0.59553301    -0.66300
Ni50       Ni  0.85871288  0.27802208  0.77255495     1.27400
Ni51       Ni  0.82540650  0.33887118  0.75084892     1.26100
H52         H  0.85635325  0.37858973  0.67408379     0.38900
O53         O  0.52616648  0.19456564  0.08438234    -0.81100
O54         O  0.50803170  0.17452855  0.32265344    -0.55000
O55         O  0.52204953  0.16110208  0.18320474    -1.12400
C56         C  0.39604337  0.12620990  0.17007867     1.05800
O57         O  0.44710276  0.13405354  0.33759627    -0.79000
O58         O  0.42035424  0.08430022  0.26544032    -0.66600
Ni59       Ni  0.55850625  0.20270140  0.13885848     1.34900
C60         C  0.43464904  0.07233685  0.23259248     0.84600
O61         O  0.56589310  0.17954723  0.26429438    -0.79500
O62         O  0.59429587  0.21257109  0.18802407    -0.89800
C63         C  0.47924585  0.15472086  0.35295168     0.84100
O64         O  0.54911459  0.24145381  0.16228343    -0.68000
O65         O  0.39174003  0.12550890  0.21886605    -0.87300
C66         C  0.54570154  0.24828596  0.20849734     0.85000
C67         C  0.59500569  0.19984043  0.23337868     1.06500
H68         H  0.47045237  0.18604336  0.22768140     0.38300
O69         O  0.46850995  0.16152014  0.23352374    -1.09900
O70         O  0.45600609  0.09324708  0.19314969    -0.66600
Ni71       Ni  0.47353808  0.14602107  0.16708394     1.26300
O72         O  0.53620870  0.22342565  0.24565605    -0.66800
O73         O  0.42618497  0.13326240  0.14714798    -0.79100
C74         C  0.50268681  0.16274627  0.06895315     0.84300
O75         O  0.48257167  0.13446875  0.10074174    -0.66300
Ni76       Ni  0.42282882  0.13130164  0.27526107     1.27400
Ni77       Ni  0.51629596  0.16951647  0.25247271     1.26100
H78         H  0.52649034  0.14001197  0.18165529     0.38900
O79         O  0.52776315  0.19000229  0.58497150    -0.81100
O80         O  0.51052006  0.17293088  0.82194266    -0.65800
O81         O  0.52332343  0.15659320  0.68361758    -1.12400
C82         C  0.39761407  0.12358351  0.66852423     1.05800
O83         O  0.44913555  0.13529178  0.83704763    -0.79000
O84         O  0.42167050  0.08299384  0.76728018    -0.66600
Ni85       Ni  0.56043041  0.19691892  0.63841700     1.34900
C86         C  0.43422139  0.06959006  0.73408949     0.84600
O87         O  0.56782144  0.17620247  0.76479195    -0.79500
O88         O  0.59622364  0.20587077  0.68697358    -0.89800
C89         C  0.48152187  0.15503020  0.85232331     0.84100
O90         O  0.55389739  0.23764155  0.66079949    -0.68000
O91         O  0.39325547  0.12302294  0.71734431    -0.87300
C92         C  0.54980892  0.24527047  0.70635113     0.85000
C93         C  0.59695041  0.19502714  0.73334428     1.06500
H94         H  0.47324747  0.18399940  0.72592259     0.38300
O95         O  0.47065344  0.15923731  0.73258994    -1.09900
O96         O  0.45545317  0.08954531  0.69392773    -0.66600
Ni97       Ni  0.47505944  0.14260546  0.66677699     1.26300
O98         O  0.53895172  0.22067777  0.74415413    -0.66800
O99         O  0.42806618  0.13107926  0.64604682    -0.79100
C100        C  0.50357058  0.15878760  0.56899532     0.84300
O101        O  0.48377553  0.13022991  0.60060863    -0.66300
Ni102      Ni  0.42472423  0.13055999  0.77423300     1.27400
Ni103      Ni  0.51826598  0.16658913  0.75230217     1.26100
H104        H  0.52693529  0.13495722  0.68305487     0.38900
O105        O  0.68586229  0.47916368  0.06114657    -0.81100
O106        O  0.66737425  0.49160762  0.29513402    -0.65800
O107        O  0.65054728  0.47935967  0.15524829    -1.12400
C108        C  0.73089887  0.60941480  0.11791089     1.05800
O109        O  0.70362425  0.55475211  0.29655813    -0.79000
O110        O  0.66261715  0.56726418  0.22959817    -0.66600
Ni111      Ni  0.66057833  0.44480104  0.12159470     1.34900
C112        C  0.64204273  0.55889753  0.19241289     0.84600
O113        O  0.61909659  0.43314425  0.24224726    -0.79500
O114        O  0.63385214  0.40705928  0.17720297    -0.89800
C115        C  0.68558526  0.52120990  0.31866477     0.84100
O116        O  0.70747478  0.45885215  0.14919025    -0.68000
O117        O  0.72537473  0.61310467  0.16515764    -0.87300
C118        C  0.71259561  0.45872014  0.19678089     0.85000
C119        C  0.61454109  0.40444824  0.21809569     1.06500
H120        H  0.72436955  0.53302945  0.19621180     0.38300
O121        O  0.70177823  0.53412832  0.19829904    -1.09900
O122        O  0.64908640  0.54695483  0.15059829    -0.66600
Ni123      Ni  0.68455848  0.52928353  0.13130240     1.26300
O124        O  0.69294398  0.46438031  0.22945207    -0.66800
O125        O  0.72141250  0.57748967  0.10238968    -0.79100
C126        C  0.67613355  0.50111120  0.03935718     0.84300
O127        O  0.66650034  0.52030748  0.06590973    -0.66300
Ni128      Ni  0.71271665  0.57998112  0.22888195     1.27400
Ni129      Ni  0.65992008  0.48447418  0.22464919     1.26100
H130        H  0.62549424  0.47367946  0.15062554     0.38900
O131        O  0.68944967  0.48168758  0.56037192    -0.81100
O132        O  0.66692455  0.48966179  0.79561001    -0.65800
O133        O  0.65311530  0.47919487  0.65455248    -1.12400
C134        C  0.72357538  0.61067565  0.62360493     1.05800
O135        O  0.70154801  0.55298932  0.79862328    -0.79000
O136        O  0.65552780  0.55878355  0.73473093    -0.66600
Ni137      Ni  0.66622751  0.44678860  0.62094964     1.34900
C138        C  0.63604410  0.55148747  0.69645828     0.84600
O139        O  0.62172493  0.43086046  0.74003395    -0.79500
O140        O  0.64171187  0.40813776  0.67655531    -0.89800
C141        C  0.68430243  0.51919260  0.81962843     0.84100
O142        O  0.71363967  0.46461911  0.64883335    -0.68000
O143        O  0.71465213  0.61105827  0.67069437    -0.87300
C144        C  0.71781459  0.46314502  0.69664750     0.85000
C145        C  0.61962568  0.40332354  0.71527456     1.06500
H146        H  0.72470712  0.53568085  0.69882825     0.38300
O147        O  0.70110586  0.53473558  0.70028854    -1.09900
O148        O  0.64596376  0.54348569  0.65304736    -0.66600
Ni149      Ni  0.68507745  0.53045984  0.63267454     1.26300
O150        O  0.69643030  0.46631285  0.72939315    -0.66800
O151        O  0.72026575  0.58097487  0.60654512    -0.79100
C152        C  0.67907431  0.50334603  0.53925648     0.84300
O153        O  0.66865561  0.52195165  0.56602264    -0.66300
Ni154      Ni  0.70703471  0.57827101  0.73257782     1.27400
Ni155      Ni  0.66099764  0.48345045  0.72455747     1.26100
H156        H  0.62772002  0.47193742  0.64930193     0.38900
O157        O  0.30273075  0.78162761  0.40477421    -0.81100
O158        O  0.32836026  0.82087775  0.16663440    -0.65800
O159        O  0.33921689  0.82057417  0.30922052    -1.12400
C160        C  0.26848018  0.87736333  0.32735963     1.05800
O161        O  0.29379627  0.84841696  0.15751184    -0.79000
O162        O  0.34048923  0.89783761  0.22196591    -0.66600
Ni163      Ni  0.32800861  0.77435038  0.34620154     1.34900
C164        C  0.35600554  0.90999978  0.26306697     0.84600
O165        O  0.37326531  0.80884442  0.22655632    -0.79500
O166        O  0.35469000  0.76428163  0.29313498    -0.89800
C167        C  0.31077566  0.83227397  0.13960552     0.84100
O168        O  0.28136618  0.74322104  0.31792239    -0.68000
O169        O  0.28092693  0.89024505  0.28100900    -0.87300
C170        C  0.27775905  0.73887900  0.27032110     0.85000
C171        C  0.37597240  0.78305439  0.25301268     1.06500
H172        H  0.26820295  0.80358665  0.25735854     0.38300
O173        O  0.29168845  0.82686637  0.25736215    -1.09900
O174        O  0.34314311  0.88999458  0.30681594    -0.66600
Ni175      Ni  0.30476858  0.83581469  0.32594908     1.26300
O176        O  0.29886794  0.76513710  0.23634212    -0.66800
O177        O  0.26756809  0.84777026  0.34542119    -0.79100
C178        C  0.30979951  0.81276990  0.42313298     0.84300
O179        O  0.31860978  0.84212951  0.39380478    -0.66300
Ni180      Ni  0.28853724  0.86688553  0.22138013     1.27400
Ni181      Ni  0.33298932  0.81893974  0.23832932     1.26100
H182        H  0.36402558  0.84019481  0.31501648     0.38900
O183        O  0.30032879  0.78186813  0.90664632    -0.81100
O184        O  0.31894543  0.81288949  0.66796974    -0.65800
O185        O  0.33447055  0.81828007  0.80938705    -1.12400
C186        C  0.26151469  0.87350315  0.82791371     1.05800
O187        O  0.28586419  0.84220327  0.65843851    -0.79000
O188        O  0.33167926  0.89430473  0.72091192    -0.66600
Ni189      Ni  0.32635237  0.77418681  0.84960420     1.34900
C190        C  0.34847378  0.90672896  0.76111444     0.84600
O191        O  0.36622147  0.80314206  0.72634236    -0.79500
O192        O  0.35440898  0.76463066  0.79837332    -0.89800
C193        C  0.30211038  0.82525145  0.64087903     0.84100
O194        O  0.28005059  0.73827874  0.82344296    -0.68000
O195        O  0.27173599  0.88445414  0.78058715    -0.87300
C196        C  0.27392823  0.73373090  0.77627779     0.85000
C197        C  0.37187279  0.78000775  0.75462848     1.06500
H198        H  0.26168950  0.79878369  0.76107690     0.38300
O199        O  0.28511087  0.82231842  0.75925149    -1.09900
O200        O  0.33702221  0.88716608  0.80516793    -0.66600
Ni201      Ni  0.29980568  0.83337827  0.82687107     1.26300
O202        O  0.29206674  0.76028879  0.74140627    -0.66800
O203        O  0.26268272  0.84540081  0.84767116    -0.79100
C204        C  0.30843092  0.81373975  0.92349192     0.84300
O205        O  0.31574342  0.84212637  0.89327616    -0.66300
Ni206      Ni  0.27995034  0.86075872  0.72195159     1.27400
Ni207      Ni  0.32614045  0.81390330  0.73925935     1.26100
H208        H  0.35934474  0.83872808  0.81293823     0.38900
O209        O  0.18436312  0.49827675  0.40006306    -0.81100
O210        O  0.17158562  0.49725686  0.16786004    -0.65800
O211        O  0.15684673  0.50546269  0.30907104    -1.12400
C212        C  0.11384840  0.37290869  0.33457388     1.05800
O213        O  0.12973062  0.43556162  0.16465511    -0.79000
O214        O  0.08027611  0.40365106  0.24463524    -0.66600
Ni215      Ni  0.19636748  0.53770983  0.34685520     1.34900
C216        C  0.06951135  0.42194180  0.27170500     0.84600
O217        O  0.17952630  0.55572639  0.22444675    -0.79500
O218        O  0.20877404  0.57885152  0.29668899    -0.89800
C219        C  0.15050558  0.46902552  0.14342593     0.84100
O220        O  0.23443757  0.52944344  0.31714389    -0.68000
O221        O  0.12051648  0.37260227  0.28651408    -0.87300
C222        C  0.24224946  0.52854469  0.26993686     0.85000
C223        C  0.19826268  0.58315932  0.25285373     1.06500
H224        H  0.17821831  0.45240908  0.26650074     0.38300
O225        O  0.15499759  0.45167367  0.26242748    -1.09900
O226        O  0.08846217  0.44308569  0.30658346    -0.66600
Ni227      Ni  0.13662104  0.45374498  0.32988341     1.26300
O228        O  0.21876919  0.52065614  0.23683887    -0.66800
O229        O  0.11678690  0.40203656  0.35370163    -0.79100
C230        C  0.15220748  0.47822407  0.42327930     0.84300
O231        O  0.12408987  0.46109570  0.39749796    -0.66300
Ni232      Ni  0.12657822  0.40711592  0.22764536     1.27400
Ni233      Ni  0.16647989  0.50289553  0.23909921     1.26100
H234        H  0.13778546  0.51223445  0.31288456     0.38900
O235        O  0.18444975  0.50168211  0.89943356    -0.81100
O236        O  0.16478598  0.49194297  0.66737966    -0.65800
O237        O  0.15606519  0.50504717  0.80766445    -1.12400
C238        C  0.10672420  0.37191678  0.84218832     1.05800
O239        O  0.12976798  0.42869684  0.66599780    -0.79000
O240        O  0.07848598  0.40493443  0.74418748    -0.66600
Ni241      Ni  0.19893876  0.53717234  0.83991272     1.34900
C242        C  0.06815488  0.42324639  0.77197311     0.84600
O243        O  0.17400475  0.55166690  0.72235856    -0.79500
O244        O  0.21452838  0.57525277  0.78360200    -0.89800
C245        C  0.14763779  0.46211110  0.64386119     0.84100
O246        O  0.23004574  0.51904657  0.81159877    -0.68000
O247        O  0.11168337  0.36939661  0.79445268    -0.87300
C248        C  0.23823602  0.52145352  0.76366969     0.85000
C249        C  0.19709627  0.57941963  0.74720663     1.06500
H250        H  0.17533940  0.44982317  0.76808224     0.38300
O251        O  0.15199316  0.44885387  0.76433199    -1.09900
O252        O  0.08685330  0.44342845  0.80787670    -0.66600
Ni253      Ni  0.13490204  0.45395687  0.83157027     1.26300
O254        O  0.21517467  0.51790701  0.73142266    -0.66800
O255        O  0.11372395  0.40289411  0.85963523    -0.79100
C256        C  0.15212680  0.48337440  0.92286340     0.84300
O257        O  0.12379146  0.46493117  0.89779589    -0.66300
Ni258      Ni  0.12239614  0.40279511  0.73257346     1.27400
Ni259      Ni  0.16245895  0.49949017  0.73815529     1.26100
H260        H  0.13817052  0.51330100  0.81263013     0.38900
O261        O  0.47466214  0.66286015  0.37404066    -0.81100
O262        O  0.48192107  0.66435290  0.13836937    -0.65800
O263        O  0.47204995  0.63323901  0.27995666    -1.12400
C264        C  0.59860654  0.72907522  0.28051059     1.05800
O265        O  0.54082295  0.67850114  0.12402516    -0.79000
O266        O  0.57631384  0.66547956  0.19718586    -0.66600
Ni267      Ni  0.43844933  0.63734015  0.32626432     1.34900
C268        C  0.56032920  0.63554686  0.22768862     0.84600
O269        O  0.42387262  0.60996487  0.20330411    -0.79500
O270        O  0.39996482  0.61095884  0.28249208    -0.89800
C271        C  0.50904741  0.66903265  0.10848969     0.84100
O272        O  0.44604915  0.68550245  0.29978231    -0.68000
O273        O  0.59919492  0.73642566  0.23223273    -0.87300
C274        C  0.44859901  0.69829365  0.25365305     0.85000
C275        C  0.39657804  0.59915741  0.23764627     1.06500
H276        H  0.52295097  0.71103871  0.23046656     0.38300
O277        O  0.52411189  0.68839380  0.22483855    -1.09900
O278        O  0.53682245  0.63067854  0.26517203    -0.66600
Ni279      Ni  0.52207192  0.66610712  0.29171043     1.26300
O280        O  0.45720105  0.68484247  0.21614228    -0.66800
O281        O  0.57163975  0.70047526  0.30538764    -0.79100
C282        C  0.49547598  0.65124997  0.39139431     0.84300
O283        O  0.51507406  0.64393437  0.36044089    -0.66300
Ni284      Ni  0.56769662  0.70620654  0.18023845     1.27400
Ni285      Ni  0.47499089  0.64941836  0.21004700     1.26100
H286        H  0.46678727  0.60724784  0.28259727     0.38900
O287        O  0.46940042  0.65974327  0.87288008    -0.81100
O288        O  0.48058552  0.66093759  0.63816232    -0.65800
O289        O  0.46761377  0.62915658  0.77996412    -1.12400
C290        C  0.59666222  0.71805422  0.78452751     1.05800
O291        O  0.53899875  0.67327655  0.62575088    -0.79000
O292        O  0.56926568  0.65407064  0.69963928    -0.66600
Ni293      Ni  0.43322447  0.63245426  0.82554307     1.34900
C294        C  0.55256235  0.62502980  0.73157192     0.84600
O295        O  0.42065751  0.60808114  0.70148206    -0.79500
O296        O  0.39511497  0.60435573  0.78162828    -0.89800
C297        C  0.50769302  0.66450303  0.60924049     0.84100
O298        O  0.43820912  0.67944915  0.79837982    -0.68000
O299        O  0.59840102  0.72521982  0.73604303    -0.87300
C300        C  0.44431279  0.69441095  0.75268743     0.85000
C301        C  0.39273083  0.59516984  0.73532618     1.06500
H302        H  0.52223462  0.70642515  0.73110302     0.38300
O303        O  0.52202862  0.68297585  0.72624188    -1.09900
O304        O  0.53033698  0.62247305  0.76952056    -0.66600
Ni305      Ni  0.51763614  0.66013444  0.79378326     1.26300
O306        O  0.45643310  0.68323167  0.71588986    -0.66800
O307        O  0.56747143  0.69216791  0.80943061    -0.79100
C308        C  0.49022899  0.64877755  0.89221338     0.84300
O309        O  0.50828387  0.63843887  0.86308305    -0.66300
Ni310      Ni  0.56591997  0.69806013  0.68320427     1.27400
Ni311      Ni  0.47221059  0.64593552  0.71006152     1.26100
H312        H  0.46170556  0.60295699  0.78201833     0.38900
O313        O  0.15814129  0.99465703  0.12077309    -0.81100
O314        O  0.16802626  0.99362938  0.88577404    -0.65800
O315        O  0.15396740  0.96446060  0.02793552    -1.12400
C316        C  0.27819104  0.05999195  0.03488623     1.05800
O317        O  0.22868890  0.01283270  0.87477871    -0.79000
O318        O  0.26325394  0.00435766  0.95727815    -0.66600
Ni319      Ni  0.12132969  0.97071110  0.07185475     1.34900
C320        C  0.23962503  0.96952236  0.96757479     0.84600
O321        O  0.10880783  0.93922695  0.95061537    -0.79500
O322        O  0.08324391  0.94438450  0.02646267    -0.89800
C323        C  0.19675962  0.00068241  0.85737841     0.84100
O324        O  0.13022043  0.01932684  0.04201109    -0.68000
O325        O  0.27790335  0.07253831  0.98906184    -0.87300
C326        C  0.12943179  0.02736584  0.99452436     0.85000
C327        C  0.08071126  0.93037404  0.98289593     1.06500
H328        H  0.20334769  0.04155256  0.98204443     0.38300
O329        O  0.20632816  0.02018881  0.97469049    -1.09900
O330        O  0.21406223  0.95935842  0.00424561    -0.66600
Ni331      Ni  0.20386381  0.99535162  0.03964517     1.26300
O332        O  0.13846881  0.01242851  0.95964917    -0.66800
O333        O  0.25453100  0.02646765  0.05240653    -0.79100
C334        C  0.17765235  0.98120118  0.13890585     0.84300
O335        O  0.19572879  0.97159254  0.10799955    -0.66300
Ni336      Ni  0.25168213  0.04174328  0.93345086     1.27400
Ni337      Ni  0.15897172  0.97967022  0.95785617     1.26100
H338        H  0.14745730  0.93808913  0.03186971     0.38900
O339        O  0.15961304  0.99469748  0.62078475    -0.81100
O340        O  0.16512625  0.98898926  0.38685793    -0.65800
O341        O  0.15267775  0.96199640  0.52970567    -1.12400
C342        C  0.27736607  0.05863354  0.53454851     1.05800
O343        O  0.22620050  0.00925495  0.37578773    -0.79000
O344        O  0.26286488  0.00347174  0.45836569    -0.66600
Ni345      Ni  0.12160436  0.97056882  0.57363143     1.34900
C346        C  0.24044480  0.96842490  0.46890396     0.84600
O347        O  0.10505158  0.93616641  0.45434925    -0.79500
O348        O  0.08209856  0.94445953  0.53005956    -0.89800
C349        C  0.19404835  0.99623622  0.35847962     0.84100
O350        O  0.13221136  0.01947140  0.54252719    -0.68000
O351        O  0.27618363  0.07086091  0.48883224    -0.87300
C352        C  0.13082721  0.02725820  0.49515803     0.85000
C353        C  0.07766770  0.92896161  0.48742497     1.06500
H354        H  0.20163011  0.03830296  0.48276187     0.38300
O355        O  0.20451725  0.01692584  0.47522104    -1.09900
O356        O  0.21415545  0.95741774  0.50487281    -0.66600
Ni357      Ni  0.20306957  0.99306288  0.54022576     1.26300
O358        O  0.13732220  0.01032049  0.46047485    -0.66800
O359        O  0.25390344  0.02514576  0.55267298    -0.79100
C360        C  0.17904195  0.98124102  0.63916792     0.84300
O361        O  0.19590978  0.97009767  0.60866650    -0.66300
Ni362      Ni  0.24960852  0.03926125  0.43370782     1.27400
Ni363      Ni  0.15647467  0.97627079  0.45947473     1.26100
H364        H  0.14584273  0.93555994  0.53448299     0.38900
O365        O  0.98080520  0.11042743  0.11435119    -0.81100
O366        O  0.99510197  0.13366497  0.87705835    -0.65800
O367        O  0.01413400  0.14246253  0.01659609    -1.12400
C368        C  0.92877698  0.18719022  0.03567072     1.05800
O369        O  0.96919561  0.16991863  0.86604662    -0.79000
O370        O  0.99369629  0.22145812  0.93538948    -0.66600
Ni371      Ni  0.00422924  0.09879350  0.05858924     1.34900
C372        C  0.02056974  0.23196432  0.96362470     0.84600
O373        O  0.04362366  0.12530040  0.93540632    -0.79500
O374        O  0.02908422  0.08556247  0.00717274    -0.89800
C375        C  0.98379388  0.15133570  0.84872759     0.84100
O376        O  0.95651923  0.06438316  0.03564899    -0.68000
O377        O  0.92443724  0.18504868  0.98786166    -0.87300
C378        C  0.95005935  0.05817667  0.98905816     0.85000
C379        C  0.04831246  0.10190950  0.96475492     1.06500
H380        H  0.94113659  0.12126231  0.97648655     0.38300
O381        O  0.96358021  0.14550897  0.96927107    -1.09900
O382        O  0.02049019  0.21210678  0.00361466    -0.66600
Ni383      Ni  0.98286662  0.16136395  0.03432823     1.26300
O384        O  0.96947259  0.08303362  0.95280847    -0.66800
O385        O  0.95104744  0.17939930  0.05653280    -0.79100
C386        C  0.99197860  0.14316770  0.13045287     0.84300
O387        O  0.00222963  0.17207384  0.09914595    -0.66300
Ni388      Ni  0.94873429  0.17585261  0.92989068     1.27400
Ni389      Ni  0.00385427  0.13643575  0.94775351     1.26100
H390        H  0.03971807  0.16185429  0.01856580     0.38900
O391        O  0.98127292  0.11395913  0.61167958    -0.81100
O392        O  0.00280457  0.14041216  0.37591162    -0.65800
O393        O  0.01832967  0.14609140  0.51634704    -1.12400
C394        C  0.93505866  0.19316680  0.53432876     1.05800
O395        O  0.97063893  0.17062549  0.36538748    -0.79000
O396        O  0.99996395  0.22436797  0.43083841    -0.66600
Ni397      Ni  0.00611378  0.10185336  0.55804644     1.34900
C398        C  0.02723513  0.23467896  0.45840386     0.84600
O399        O  0.04968215  0.13009294  0.43701934    -0.79500
O400        O  0.03295415  0.08945728  0.50864377    -0.89800
C401        C  0.98765882  0.15441766  0.34819045     0.84100
O402        O  0.95948210  0.06777970  0.53098743    -0.68000
O403        O  0.93105088  0.19166215  0.48650853    -0.87300
C404        C  0.95519840  0.06232532  0.48365779     0.85000
C405        C  0.05378227  0.10667186  0.46749601     1.06500
H406        H  0.94643449  0.12547163  0.47529079     0.38300
O407        O  0.96868831  0.14987019  0.46801945    -1.09900
O408        O  0.02644152  0.21607808  0.50040832    -0.66600
Ni409      Ni  0.98799963  0.16604261  0.53294732     1.26300
O410        O  0.97568882  0.08801229  0.44895159    -0.66800
O411        O  0.95717217  0.18507950  0.55473452    -0.79100
C412        C  0.99449234  0.14670561  0.62896393     0.84300
O413        O  0.00688621  0.17636073  0.59821951    -0.66300
Ni414      Ni  0.95335627  0.17988574  0.42884774     1.27400
Ni415      Ni  0.00966558  0.14136403  0.44719028     1.26100
H416        H  0.04396009  0.16484395  0.51960791     0.38900
O417        O  0.84709911  0.84853977  0.80984954    -0.81100
O418        O  0.84401827  0.83231360  0.04628534    -0.65800
O419        O  0.85259086  0.82020859  0.90441875    -1.12400
C420        C  0.72544945  0.78349216  0.90319611     1.05800
O421        O  0.78244639  0.79479552  0.06217645    -0.79000
O422        O  0.74798291  0.74589688  0.99106750    -0.66600
Ni423      Ni  0.88451012  0.86136573  0.85773526     1.34900
C424        C  0.76960375  0.73548661  0.97166029     0.84600
O425        O  0.90045704  0.83912866  0.97831438    -0.79500
O426        O  0.92372739  0.87426731  0.90189858    -0.89800
C427        C  0.81509274  0.81295020  0.07711023     0.84100
O428        O  0.87408979  0.89854539  0.88437668    -0.68000
O429        O  0.72649939  0.79425918  0.94833598    -0.87300
C430        C  0.87477188  0.90635204  0.93095353     0.85000
C431        C  0.92770427  0.86026610  0.94442061     1.06500
H432        H  0.80411925  0.84553034  0.94994480     0.38300
O433        O  0.80141870  0.82093140  0.95862850    -1.09900
O434        O  0.79200644  0.75292648  0.93142581    -0.66600
Ni435      Ni  0.80237931  0.80077973  0.89448338     1.26300
O436        O  0.86937178  0.88229604  0.96761638    -0.66800
O437        O  0.75168026  0.78073854  0.88193730    -0.79100
C438        C  0.82717729  0.81537189  0.79486696     0.84300
O439        O  0.80910321  0.78681700  0.82783527    -0.66300
Ni440      Ni  0.75708045  0.79543441  0.00267646     1.27400
Ni441      Ni  0.84985174  0.82863834  0.97384864     1.26100
H442        H  0.85880234  0.80044565  0.90131114     0.38900
O443        O  0.84330387  0.84632411  0.31251920    -0.81100
O444        O  0.83777953  0.83773239  0.54653461    -0.65800
O445        O  0.84688022  0.81910905  0.40824517    -1.12400
C446        C  0.72309045  0.79382496  0.40360763     1.05800
O447        O  0.77718126  0.79480017  0.56072602    -0.79000
O448        O  0.73688779  0.75180269  0.48501890    -0.66600
Ni449      Ni  0.88092756  0.85715497  0.35928143     1.34900
C450        C  0.75755357  0.73811148  0.47516828     0.84600
O451        O  0.89500437  0.84054533  0.48369522    -0.79500
O452        O  0.91982656  0.86765809  0.40325545    -0.89800
C453        C  0.80934902  0.81527447  0.57667797     0.84100
O454        O  0.87729102  0.89976907  0.38106981    -0.68000
O455        O  0.72582574  0.80723674  0.44754613    -0.87300
C456        C  0.87590426  0.90895908  0.42657160     0.85000
C457        C  0.92279795  0.85748026  0.44910058     1.06500
H458        H  0.80103929  0.84947894  0.44817804     0.38300
O459        O  0.79732601  0.82472392  0.45885729    -1.09900
O460        O  0.78313942  0.75351761  0.43784103    -0.66600
Ni461      Ni  0.79683213  0.80183808  0.39725753     1.26300
O462        O  0.86584293  0.88510027  0.46521245    -0.66800
O463        O  0.74633742  0.78519195  0.38505720    -0.79100
C464        C  0.82245937  0.81322609  0.29797993     0.84300
O465        O  0.80236648  0.78544316  0.33151230    -0.66300
Ni466      Ni  0.75316635  0.80203282  0.50266798     1.27400
Ni467      Ni  0.84471098  0.83124476  0.47597876     1.26100
H468        H  0.85128678  0.79796616  0.40825368     0.38900
C469        C  0.79102048  0.78387040  0.72019941    -0.21500
C470        C  0.82359467  0.81207382  0.73901862    -0.09500
C471        C  0.85202775  0.83964898  0.70386672     0.29300
C472        C  0.84725324  0.83989177  0.65146209    -0.21500
C473        C  0.81410845  0.81277427  0.63248922    -0.09500
C474        C  0.78615647  0.78417103  0.66743230     0.29300
F475        F  0.75398338  0.75670203  0.65096927    -0.20100
H476        H  0.76878078  0.76240395  0.74648943     0.17700
H477        H  0.86947446  0.86200378  0.62580787     0.17700
F478        F  0.88454341  0.86679655  0.72010810    -0.20100
C479        C  0.78870684  0.78258251  0.16636373    -0.21500
C480        C  0.81861912  0.81082143  0.13346383    -0.09500
C481        C  0.85054649  0.83757317  0.15547755     0.29300
C482        C  0.85173968  0.83683445  0.20886907    -0.21500
C483        C  0.82135098  0.80952035  0.24177552    -0.09500
C484        C  0.78997230  0.78187999  0.21993053     0.29300
F485        F  0.75981937  0.75552029  0.25014431    -0.20100
H486        H  0.76380015  0.76135138  0.15066006     0.17700
H487        H  0.87640616  0.85845998  0.22462122     0.17700
F488        F  0.88002212  0.86554691  0.12581223    -0.20100
C489        C  0.88192467  0.95781288  0.48622199    -0.21500
C490        C  0.88888767  0.94917470  0.43672084    -0.09500
C491        C  0.91304668  0.97931476  0.40076636     0.29300
C492        C  0.93225322  0.01643178  0.41566652    -0.21500
C493        C  0.92820058  0.02447549  0.46673927    -0.09500
C494        C  0.90134673  0.99499506  0.50118564     0.29300
F495        F  0.89500336  0.00166232  0.54993006    -0.20100
H496        H  0.86285728  0.93535122  0.51453108     0.17700
H497        H  0.95233490  0.03850316  0.38777718     0.17700
F498        F  0.92072342  0.97274007  0.35255557    -0.20100
C499        C  0.99325959  0.12062639  0.71721486    -0.21500
C500        C  0.99312475  0.14911148  0.68491729    -0.09500
C501        C  0.99069443  0.17867789  0.70675162     0.29300
C502        C  0.98754436  0.17906853  0.76005809    -0.21500
C503        C  0.98766505  0.15055893  0.79247528    -0.09500
C504        C  0.99100545  0.12146849  0.77047642     0.29300
F505        F  0.99125405  0.09334839  0.80021773    -0.20100
H506        H  0.99532229  0.09767242  0.70114544     0.17700
H507        H  0.98526704  0.20194119  0.77598093     0.17700
F508        F  0.99061166  0.20676565  0.67681113    -0.20100
C509        C  0.99001537  0.18017972  0.25936857    -0.21500
C510        C  0.98931878  0.15167130  0.29262152    -0.09500
C511        C  0.98847553  0.12001989  0.27241761     0.29300
C512        C  0.98928427  0.11751854  0.21951696    -0.21500
C513        C  0.99084751  0.14644782  0.18607261    -0.09500
C514        C  0.99069888  0.17763875  0.20644126     0.29300
F515        F  0.99028017  0.20514022  0.17550394    -0.20100
H516        H  0.99005736  0.20451422  0.27441251     0.17700
H517        H  0.98874671  0.09288264  0.20473081     0.17700
F518        F  0.98557994  0.09095505  0.30378857    -0.20100
C519        C  0.91939500  0.01320048  0.92222489    -0.21500
C520        C  0.92183032  0.02014140  0.97468358    -0.09500
C521        C  0.90147955  0.98933418  0.01162437     0.29300
C522        C  0.88320620  0.95225732  0.99643680    -0.21500
C523        C  0.88485834  0.94517459  0.94430294    -0.09500
C524        C  0.90134466  0.97620428  0.90707420     0.29300
F525        F  0.90297219  0.97104286  0.85630024    -0.20100
H526        H  0.93391747  0.03632657  0.89256497     0.17700
H527        H  0.86977111  0.92894770  0.02604398     0.17700
F528        F  0.90119650  0.99463785  0.06250513    -0.20100
C529        C  0.02683517  0.89563199  0.42807734    -0.21500
C530        C  0.03798834  0.90290214  0.47789069    -0.09500
C531        C  0.00999868  0.88842966  0.51936324     0.29300
C532        C  0.97233312  0.87159885  0.51047770    -0.21500
C533        C  0.96143514  0.86780516  0.46028454    -0.09500
C534        C  0.98910098  0.87785670  0.41929086     0.29300
F535        F  0.97991606  0.87175589  0.37005731    -0.20100
H536        H  0.04732710  0.90532429  0.39560827     0.17700
H537        H  0.95193841  0.86322375  0.54281947     0.17700
F538        F  0.01899532  0.89175782  0.56889663    -0.20100
C539        C  0.12572112  0.08528385  0.50820356    -0.21500
C540        C  0.11881281  0.05477907  0.47906547    -0.09500
C541        C  0.09694855  0.04842401  0.43672642     0.29300
C542        C  0.07942982  0.06968869  0.42740097    -0.21500
C543        C  0.08400026  0.09814295  0.45923588    -0.09500
C544        C  0.10887113  0.10701391  0.49807577     0.29300
F545        F  0.11332929  0.13390227  0.53030851    -0.20100
H546        H  0.14262324  0.09107304  0.54052470     0.17700
H547        H  0.05946693  0.06137730  0.39862524     0.17700
F548        F  0.08919041  0.01900076  0.40762467    -0.20100
C549        C  0.21669504  0.98669789  0.77181288    -0.21500
C550        C  0.19238907  0.99413489  0.80178609    -0.09500
C551        C  0.16307603  0.99478210  0.77817282     0.29300
C552        C  0.15868927  0.98900545  0.72626368    -0.21500
C553        C  0.18326657  0.98253570  0.69562432    -0.09500
C554        C  0.21204349  0.98058528  0.71926614     0.29300
F555        F  0.23618842  0.97388947  0.69161201    -0.20100
H556        H  0.23924632  0.98553662  0.78907732     0.17700
H557        H  0.13601632  0.99039952  0.70976077     0.17700
F558        F  0.13912603  0.00238568  0.80468669    -0.20100
C559        C  0.21111167  0.98103335  0.21789441    -0.21500
C560        C  0.18069276  0.98039919  0.19577292    -0.09500
C561        C  0.15379720  0.98203086  0.22853424     0.29300
C562        C  0.15827200  0.98635053  0.28088288    -0.21500
C563        C  0.18965865  0.98935544  0.30273889    -0.09500
C564        C  0.21583350  0.98585218  0.27070134     0.29300
F565        F  0.24599302  0.98716148  0.29014602    -0.20100
H566        H  0.23192541  0.97914015  0.19405321     0.17700
H567        H  0.13725591  0.98829789  0.30418286     0.17700
F568        F  0.12297368  0.97982738  0.21000148    -0.20100
C569        C  0.03205294  0.90435323  0.92065166    -0.21500
C570        C  0.04232884  0.90416284  0.97066879    -0.09500
C571        C  0.01435651  0.88366746  0.01102295     0.29300
C572        C  0.97687952  0.86744403  0.00218565    -0.21500
C573        C  0.96657794  0.87101983  0.95298514    -0.09500
C574        C  0.99461486  0.88777820  0.91161030     0.29300
F575        F  0.98618541  0.88978177  0.86236921    -0.20100
H576        H  0.05294523  0.91952648  0.88901558     0.17700
H577        H  0.95613081  0.85390360  0.03432288     0.17700
F578        F  0.02331402  0.88109463  0.05979588    -0.20100
C579        C  0.12558098  0.08709862  0.99710740    -0.21500
C580        C  0.11414043  0.05175171  0.97786937    -0.09500
C581        C  0.08609537  0.03832695  0.94319357     0.29300
C582        C  0.06779878  0.05839366  0.93162523    -0.21500
C583        C  0.07755246  0.09254710  0.95350789    -0.09500
C584        C  0.10782241  0.10761142  0.98439915     0.29300
F585        F  0.11729840  0.14016530  0.00713664    -0.20100
H586        H  0.14728795  0.09814605  0.02335736     0.17700
H587        H  0.04362012  0.04536098  0.90973350     0.17700
F588        F  0.07380412  0.00384617  0.92452092    -0.20100
C589        C  0.69662152  0.77750281  0.81961181    -0.21500
C590        C  0.69234352  0.77213165  0.87372025    -0.09500
C591        C  0.65636757  0.75167728  0.89804394     0.29300
C592        C  0.62557332  0.73554010  0.86870814    -0.21500
C593        C  0.62976872  0.73956816  0.81438016    -0.09500
C594        C  0.66581735  0.76169118  0.79019837     0.29300
F595        F  0.67161564  0.76651934  0.73818278    -0.20100
H596        H  0.72411118  0.79309400  0.79988057     0.17700
H597        H  0.59832001  0.71880398  0.88880423     0.17700
F598        F  0.65102217  0.74493479  0.94999438    -0.20100
C599        C  0.46729703  0.64426976  0.47957858    -0.21500
C600        C  0.49778338  0.64961856  0.44750392    -0.09500
C601        C  0.53062506  0.65735253  0.46935809     0.29300
C602        C  0.53334974  0.66155644  0.52206553    -0.21500
C603        C  0.50334562  0.65793080  0.55396433    -0.09500
C604        C  0.46984998  0.64821390  0.53218599     0.29300
F605        F  0.43974240  0.64331134  0.56117960    -0.20100
H606        H  0.44149056  0.63786640  0.46357530     0.17700
H607        H  0.55941145  0.66852342  0.53762700     0.17700
F608        F  0.56068089  0.66296962  0.43956144    -0.20100
C609        C  0.52822352  0.65574193  0.02324364    -0.21500
C610        C  0.50360047  0.66247551  0.05352186    -0.09500
C611        C  0.47406297  0.66301277  0.03059343     0.29300
C612        C  0.46972776  0.65754738  0.97860482    -0.21500
C613        C  0.49457220  0.65138481  0.94802060    -0.09500
C614        C  0.52373591  0.65007981  0.97100041     0.29300
F615        F  0.54839575  0.64432408  0.94297186    -0.20100
H616        H  0.55108548  0.65489729  0.04000362     0.17700
H617        H  0.44690710  0.65865720  0.96212070     0.17700
F618        F  0.44989962  0.66994247  0.05784040    -0.20100
C619        C  0.62494680  0.75279259  0.36423704    -0.21500
C620        C  0.63057952  0.75333216  0.31038447    -0.09500
C621        C  0.66705604  0.77295241  0.28760542     0.29300
C622        C  0.69701120  0.78869999  0.31841789    -0.21500
C623        C  0.69138537  0.78564889  0.37246007    -0.09500
C624        C  0.65494547  0.76877980  0.39504665     0.29300
F625        F  0.64813589  0.76454675  0.44694793    -0.20100
H626        H  0.59711313  0.73816159  0.38292873     0.17700
H627        H  0.72485599  0.80157327  0.30005018     0.17700
F628        F  0.67393843  0.77415132  0.23609691    -0.20100
C629        C  0.29558786  0.56362110  0.70656369    -0.21500
C630        C  0.27665101  0.53295796  0.74438243    -0.09500
C631        C  0.29626921  0.51740618  0.76752679     0.29300
C632        C  0.33469921  0.53462417  0.75680655    -0.21500
C633        C  0.35439434  0.56813033  0.72379320    -0.09500
C634        C  0.33425148  0.58138243  0.69665645     0.29300
F635        F  0.35230203  0.61422567  0.66582925    -0.20100
H636        H  0.28096366  0.57610348  0.68821466     0.17700
H637        H  0.34969703  0.52422254  0.77875486     0.17700
F638        F  0.27868418  0.48706100  0.80282734    -0.20100
C639        C  0.05567282  0.30237036  0.96044491    -0.21500
C640        C  0.05313792  0.26883407  0.94470301    -0.09500
C641        C  0.07190138  0.27047231  0.89762405     0.29300
C642        C  0.09057514  0.30426388  0.86542883    -0.21500
C643        C  0.09116204  0.33738742  0.87944841    -0.09500
C644        C  0.07456186  0.33632941  0.92849699     0.29300
F645        F  0.07359555  0.36713637  0.94393187    -0.20100
H646        H  0.04013302  0.30151009  0.99532978     0.17700
H647        H  0.10307986  0.30397068  0.82836530     0.17700
F648        F  0.06870368  0.23817959  0.88025968    -0.20100
C649        C  0.11772371  0.44046065  0.56210760    -0.21500
C650        C  0.14824389  0.46627236  0.58759644    -0.09500
C651        C  0.17916191  0.49608144  0.55888779     0.29300
C652        C  0.17966440  0.49970122  0.50567305    -0.21500
C653        C  0.14930608  0.47398906  0.47987847    -0.09500
C654        C  0.11800918  0.44443080  0.50859861     0.29300
F655        F  0.08810100  0.41910479  0.48519066    -0.20100
H656        H  0.09348232  0.41741970  0.58371124     0.17700
H657        H  0.20413669  0.52280303  0.48457503     0.17700
F658        F  0.20939996  0.52113496  0.58204785    -0.20100
C659        C  0.18097012  0.50618471  0.00441451    -0.21500
C660        C  0.14935458  0.48169074  0.97962687    -0.09500
C661        C  0.11709903  0.45493495  0.00965222     0.29300
C662        C  0.11754166  0.45128206  0.06307628    -0.21500
C663        C  0.14973040  0.47483873  0.08746050    -0.09500
C664        C  0.18122573  0.50295409  0.05765281     0.29300
F665        F  0.21294896  0.52605867  0.07954479    -0.20100
H666        H  0.20611381  0.52747850  0.98244600     0.17700
H667        H  0.09272774  0.42974814  0.08539166     0.17700
F668        F  0.08554420  0.43168547  0.98761868    -0.20100
C669        C  0.30021470  0.52567417  0.27894454    -0.21500
C670        C  0.28070070  0.53956726  0.25192114    -0.09500
C671        C  0.29945772  0.56735887  0.21045041     0.29300
C672        C  0.33781436  0.58338556  0.19940413    -0.21500
C673        C  0.35785742  0.57155273  0.22916031    -0.09500
C674        C  0.33828246  0.54103542  0.26718184     0.29300
F675        F  0.35705194  0.52972529  0.29774237    -0.20100
H676        H  0.28637974  0.50432700  0.31092716     0.17700
H677        H  0.35233267  0.60777303  0.17155189     0.17700
F678        F  0.28151903  0.58204439  0.18438759    -0.20100
C679        C  0.08933950  0.33849031  0.42266777    -0.21500
C680        C  0.10032784  0.33802119  0.37075545    -0.09500
C681        C  0.09479960  0.30337041  0.35409990     0.29300
C682        C  0.07519732  0.26980060  0.38672013    -0.21500
C683        C  0.06087498  0.26990346  0.43663518    -0.09500
C684        C  0.06963661  0.30487230  0.45508975     0.29300
F685        F  0.05560471  0.30609232  0.50236169    -0.20100
H686        H  0.09364456  0.36462962  0.43743838     0.17700
H687        H  0.06819077  0.24301254  0.37126221     0.17700
F688        F  0.10596728  0.30130313  0.30536470    -0.20100
C689        C  0.22787145  0.87998530  0.90706330    -0.21500
C690        C  0.25210640  0.89641683  0.86196398    -0.09500
C691        C  0.27070811  0.93603875  0.85229280     0.29300
C692        C  0.26650228  0.95854526  0.88743790    -0.21500
C693        C  0.24288216  0.94267752  0.93314021    -0.09500
C694        C  0.22260105  0.90279641  0.94179806     0.29300
F695        F  0.19816699  0.88592007  0.98371407    -0.20100
H696        H  0.21308249  0.84944927  0.91545474     0.17700
H697        H  0.28211123  0.98899429  0.87821288     0.17700
F698        F  0.29461979  0.95348899  0.80991373    -0.20100
C699        C  0.21520547  0.67051378  0.79181697    -0.21500
C700        C  0.24690664  0.69572534  0.75998675    -0.09500
C701        C  0.25467319  0.68295323  0.71417299     0.29300
C702        C  0.23392832  0.64454101  0.70429842    -0.21500
C703        C  0.20433879  0.61861609  0.73882185    -0.09500
C704        C  0.19363441  0.63256933  0.78071328     0.29300
F705        F  0.16538003  0.60804301  0.81523226    -0.20100
H706        H  0.20824701  0.67964443  0.82675764     0.17700
H707        H  0.24343215  0.63441348  0.67276531     0.17700
F708        F  0.28481212  0.70654867  0.68178911    -0.20100
C709        C  0.41041969  0.72079999  0.70399595    -0.21500
C710        C  0.43458853  0.72452229  0.74217100    -0.09500
C711        C  0.44377233  0.75324635  0.77585501     0.29300
C712        C  0.42688507  0.77553340  0.77404188    -0.21500
C713        C  0.39985518  0.76926405  0.73946059    -0.09500
C714        C  0.39276536  0.74262514  0.70302511     0.29300
F715        F  0.36572336  0.73457517  0.67064955    -0.20100
H716        H  0.40248810  0.69850863  0.67806451     0.17700
H717        H  0.43225684  0.79529936  0.80322049     0.17700
F718        F  0.46710136  0.75795471  0.81298639    -0.20100
C719        C  0.30055752  0.78841176  0.56687424    -0.21500
C720        C  0.30223960  0.82086220  0.58556609    -0.09500
C721        C  0.30546499  0.84995123  0.55086771     0.29300
C722        C  0.30747754  0.84678801  0.49824078    -0.21500
C723        C  0.30611932  0.81452376  0.47915338    -0.09500
C724        C  0.30219254  0.78501351  0.51403668     0.29300
F725        F  0.30072550  0.75329717  0.49734020    -0.20100
H726        H  0.29799363  0.76571166  0.59322627     0.17700
H727        H  0.31046545  0.86992518  0.47240669     0.17700
F728        F  0.30829415  0.88222935  0.56774086    -0.20100
C729        C  0.29783536  0.84620362  0.05193554    -0.21500
C730        C  0.30995813  0.82679064  0.08437069    -0.09500
C731        C  0.32114421  0.80255515  0.06330490     0.29300
C732        C  0.31973021  0.79773463  0.01087574    -0.21500
C733        C  0.30793471  0.81747414  0.97875954    -0.09500
C734        C  0.29709466  0.84188114  0.99953394     0.29300
F735        F  0.28527906  0.86115610  0.96935232    -0.20100
H736        H  0.28922225  0.86514686  0.06696235     0.17700
H737        H  0.32861858  0.77919236  0.99514381     0.17700
F738        F  0.33330129  0.78340712  0.09308103    -0.20100
C739        C  0.23349501  0.88134469  0.40665504    -0.21500
C740        C  0.25867536  0.89921861  0.36267724    -0.09500
C741        C  0.27752623  0.93892527  0.35551871     0.29300
C742        C  0.27168372  0.96005971  0.39119921    -0.21500
C743        C  0.24629137  0.94273784  0.43514478    -0.09500
C744        C  0.22684200  0.90280305  0.44219495     0.29300
F745        F  0.20183511  0.88456382  0.48320517    -0.20100
H746        H  0.21889742  0.85068879  0.41343786     0.17700
H747        H  0.28726121  0.99064719  0.38346366     0.17700
F748        F  0.30291133  0.95774436  0.31493070    -0.20100
C749        C  0.26282821  0.68538737  0.21535422    -0.21500
C750        C  0.25104066  0.70109222  0.25362350    -0.09500
C751        C  0.21594181  0.67839283  0.27979502     0.29300
C752        C  0.19493816  0.63977270  0.27166039    -0.21500
C753        C  0.20885591  0.62291285  0.23822691    -0.09500
C754        C  0.24209858  0.64651255  0.20801366     0.29300
F755        F  0.25675853  0.63128178  0.17614469    -0.20100
H756        H  0.28981266  0.70239465  0.19456423     0.17700
H757        H  0.16968706  0.62205396  0.29604909     0.17700
F758        F  0.20307930  0.69291021  0.31565329    -0.20100
C759        C  0.44438980  0.75358233  0.28186298    -0.21500
C760        C  0.43922637  0.72865434  0.24382846    -0.09500
C761        C  0.42011441  0.72953058  0.20091216     0.29300
C762        C  0.40269986  0.75154948  0.19981128    -0.21500
C763        C  0.40508724  0.77358624  0.24069826    -0.09500
C764        C  0.42784361  0.77601795  0.28013193     0.29300
F765        F  0.43044666  0.79687603  0.32038603    -0.20100
H766        H  0.45928769  0.75388451  0.31490240     0.17700
H767        H  0.38469057  0.74863737  0.16965157     0.17700
F768        F  0.41491799  0.70621425  0.16287137    -0.20100
C769        C  0.59222191  0.57165005  0.66264051    -0.21500
C770        C  0.60327177  0.55722921  0.70371977    -0.09500
C771        C  0.58891129  0.55720249  0.75414300     0.29300
C772        C  0.56875554  0.57588621  0.76332078    -0.21500
C773        C  0.56190373  0.59455438  0.72256930    -0.09500
C774        C  0.57161479  0.58983635  0.67181665     0.29300
F775        F  0.56361711  0.60549259  0.63083111    -0.20100
H776        H  0.60226869  0.57193527  0.62358557     0.17700
H777        H  0.56137353  0.57848771  0.80258006     0.17700
F778        F  0.59707073  0.54188314  0.79533030    -0.20100
C779        C  0.72898938  0.69840357  0.55797946    -0.21500
C780        C  0.75069054  0.70497379  0.51132355    -0.09500
C781        C  0.76526462  0.68092932  0.50313847     0.29300
C782        C  0.75719560  0.65071141  0.54013824    -0.21500
C783        C  0.73534160  0.64455469  0.58653258    -0.09500
C784        C  0.72168846  0.66916640  0.59490710     0.29300
F785        F  0.69967624  0.66404028  0.63792243    -0.20100
H786        H  0.71732054  0.71619160  0.56659505     0.17700
H787        H  0.76788768  0.63194631  0.53240547     0.17700
F788        F  0.78649160  0.68600638  0.45936577    -0.20100
C789        C  0.67689893  0.53902303  0.90452939    -0.21500
C790        C  0.68321730  0.51455866  0.87545080    -0.09500
C791        C  0.68687310  0.48543331  0.90014224     0.29300
C792        C  0.68502974  0.48151830  0.95363589    -0.21500
C793        C  0.67832869  0.50582173  0.98298854    -0.09500
C794        C  0.67366953  0.53430713  0.95784158     0.29300
F795        F  0.66532521  0.55722264  0.98439051    -0.20100
H796        H  0.67324639  0.56112881  0.88582943     0.17700
H797        H  0.68836784  0.45913744  0.97204530     0.17700
F798        F  0.69273905  0.46124466  0.87264012    -0.20100
C799        C  0.69138360  0.54710126  0.40414890    -0.21500
C800        C  0.68513842  0.51664444  0.37503110    -0.09500
C801        C  0.67745258  0.48191873  0.40047128     0.29300
C802        C  0.67578835  0.47793944  0.45400446    -0.21500
C803        C  0.68127995  0.50820492  0.48295292    -0.09500
C804        C  0.68929070  0.54293602  0.45764157     0.29300
F805        F  0.69590208  0.57311184  0.48448738    -0.20100
H806        H  0.69733797  0.57409573  0.38552599     0.17700
H807        H  0.66973405  0.45098264  0.47292152     0.17700
F808        F  0.67200562  0.45199132  0.37379142    -0.20100
C809        C  0.60244047  0.58422857  0.15784384    -0.21500
C810        C  0.61097637  0.56723412  0.19889554    -0.09500
C811        C  0.59594054  0.56665975  0.24895090     0.29300
C812        C  0.57654158  0.58610477  0.25809991    -0.21500
C813        C  0.57154755  0.60657202  0.21768250    -0.09500
C814        C  0.58296698  0.60359922  0.16697484     0.29300
F815        F  0.57715159  0.62136778  0.12616179    -0.20100
H816        H  0.61343773  0.58527716  0.11907276     0.17700
H817        H  0.56791031  0.58745986  0.29727735     0.17700
F818        F  0.60234422  0.54949782  0.28985862    -0.20100
C819        C  0.73908755  0.63587112  0.02602835    -0.21500
C820        C  0.74690607  0.64227267  0.07799560    -0.09500
C821        C  0.76866109  0.67985322  0.09045434     0.29300
C822        C  0.77997687  0.70998078  0.05275261    -0.21500
C823        C  0.76923470  0.70366046  0.00211167    -0.09500
C824        C  0.74940748  0.66616115  0.98863793     0.29300
F825        F  0.73775531  0.65876186  0.94067899    -0.20100
H826        H  0.72319525  0.60723662  0.01482166     0.17700
H827        H  0.79538189  0.73862773  0.06408681     0.17700
F828        F  0.77831169  0.68760539  0.13918677    -0.20100
C829        C  0.56785748  0.34588683  0.68702469    -0.21500
C830        C  0.59041332  0.36328431  0.72716564    -0.09500
C831        C  0.59433665  0.34019097  0.76507661     0.29300
C832        C  0.57852857  0.30097798  0.76014333    -0.21500
C833        C  0.55960387  0.28459334  0.71658712    -0.09500
C834        C  0.55311615  0.30716519  0.68119938     0.29300
F835        F  0.53431996  0.29227717  0.63939291    -0.20100
H836        H  0.56511718  0.36323979  0.65671625     0.17700
H837        H  0.58374456  0.28404790  0.78813698     0.17700
F838        F  0.61662338  0.35603654  0.80357934    -0.20100
C839        C  0.38536260  0.96898786  0.79883076    -0.21500
C840        C  0.37910054  0.94717605  0.75661399    -0.09500
C841        C  0.39689609  0.96618937  0.70810810     0.29300
C842        C  0.41766063  0.00609610  0.70155129    -0.21500
C843        C  0.42090768  0.02800530  0.74293341    -0.09500
C844        C  0.40577220  0.00876658  0.79227594     0.29300
F845        F  0.40866804  0.02833693  0.83408975    -0.20100
H846        H  0.37198276  0.95542592  0.83645249     0.17700
H847        H  0.42891586  0.01979949  0.66331227     0.17700
F848        F  0.39234522  0.94631546  0.66617810    -0.20100
C849        C  0.32922421  0.09094265  0.65535501    -0.21500
C850        C  0.36614111  0.11345032  0.63509628    -0.09500
C851        C  0.37287321  0.12251633  0.58109477     0.29300
C852        C  0.34377528  0.10693067  0.54844925    -0.21500
C853        C  0.30725486  0.08196813  0.56856893    -0.09500
C854        C  0.30020177  0.07543962  0.62271867     0.29300
F855        F  0.26511422  0.05295402  0.64428353    -0.20100
H856        H  0.32288013  0.08366578  0.69639439     0.17700
H857        H  0.35016447  0.11274792  0.50724086     0.17700
F858        F  0.40786557  0.14549971  0.55937713    -0.20100
C859        C  0.52180761  0.17937166  0.92503352    -0.21500
C860        C  0.48616966  0.15694962  0.90819106    -0.09500
C861        C  0.45594460  0.13619795  0.94518642     0.29300
C862        C  0.46166563  0.13728246  0.99749861    -0.21500
C863        C  0.49720558  0.15997500  0.01387638    -0.09500
C864        C  0.52727032  0.18113394  0.97724352     0.29300
F865        F  0.56213659  0.20281195  0.99186881    -0.20100
H866        H  0.54571667  0.19566365  0.89778839     0.17700
H867        H  0.43815668  0.12087240  0.02529926     0.17700
F868        F  0.42088310  0.11488904  0.93115101    -0.20100
C869        C  0.51562830  0.18608359  0.42617195    -0.21500
C870        C  0.48389037  0.15569168  0.40870751    -0.09500
C871        C  0.45807036  0.12639705  0.44465718     0.29300
C872        C  0.46476248  0.12719416  0.49671820    -0.21500
C873        C  0.49685340  0.15744055  0.51389657    -0.09500
C874        C  0.52202544  0.18719985  0.47800226     0.29300
F875        F  0.55319137  0.21738479  0.49259359    -0.20100
H876        H  0.53575582  0.20926003  0.39954971     0.17700
H877        H  0.44467412  0.10423931  0.52362852     0.17700
F878        F  0.42686229  0.09657646  0.42956092    -0.20100
C879        C  0.58031098  0.30404912  0.25902436    -0.21500
C880        C  0.55568212  0.28710734  0.22083229    -0.09500
C881        C  0.54361380  0.30856926  0.19286473     0.29300
C882        C  0.55803058  0.34704221  0.20066190    -0.21500
C883        C  0.58601489  0.36513590  0.23447647    -0.09500
C884        C  0.59599653  0.34292817  0.26508585     0.29300
F885        F  0.62461235  0.35973534  0.29532370    -0.20100
H886        H  0.59010618  0.28795831  0.28082831     0.17700
H887        H  0.55088433  0.36386569  0.17534084     0.17700
F888        F  0.51971613  0.29302144  0.15593758    -0.20100
C889        C  0.40975814  0.01303505  0.29169276    -0.21500
C890        C  0.42385835  0.03143118  0.24187337    -0.09500
C891        C  0.42211471  0.00908385  0.20162395     0.29300
C892        C  0.40355534  0.96926865  0.21034619    -0.21500
C893        C  0.38607509  0.95074860  0.25916657    -0.09500
C894        C  0.39100907  0.97333233  0.30032696     0.29300
F895        F  0.37434181  0.95722107  0.34781373    -0.20100
H896        H  0.41104657  0.02935747  0.32384796     0.17700
H897        H  0.40035140  0.95274102  0.17773180     0.17700
F898        F  0.43512767  0.02521408  0.15300261    -0.20100
C899        C  0.34270013  0.11174474  0.05089293    -0.21500
C900        C  0.30708976  0.08312611  0.06991135    -0.09500
C901        C  0.29998703  0.07376366  0.12369446     0.29300
C902        C  0.32839678  0.09011776  0.15676937    -0.21500
C903        C  0.36465174  0.11625592  0.13731220    -0.09500
C904        C  0.37121450  0.12826331  0.08416598     0.29300
F905        F  0.40555443  0.15514825  0.06401442    -0.20100
H906        H  0.34897679  0.11996957  0.01003838     0.17700
H907        H  0.32237650  0.08050651  0.19726123     0.17700
F908        F  0.26564410  0.04757408  0.14444432    -0.20100
C909        C  0.91611417  0.20245096  0.62262339    -0.21500
C910        C  0.91406945  0.20531308  0.56888801    -0.09500
C911        C  0.89353450  0.22132004  0.54976073     0.29300
C912        C  0.87801508  0.23647538  0.58319196    -0.21500
C913        C  0.88227907  0.23588472  0.63647965    -0.09500
C914        C  0.90065227  0.21763485  0.65604886     0.29300
F915        F  0.90571696  0.21642235  0.70691751    -0.20100
H916        H  0.93060141  0.18917780  0.63896037     0.17700
H917        H  0.86352516  0.24986660  0.56696529     0.17700
F918        F  0.88949475  0.22366774  0.49869774    -0.20100
C919        C  0.75990004  0.41383915  0.77182709    -0.21500
C920        C  0.78912699  0.41995753  0.73682018    -0.09500
C921        C  0.79969520  0.44738781  0.69487909     0.29300
C922        C  0.77790416  0.46364367  0.68373118    -0.21500
C923        C  0.74598310  0.45410136  0.71530947    -0.09500
C924        C  0.73876614  0.43123442  0.76169972     0.29300
F925        F  0.70870894  0.42195414  0.79424865    -0.20100
H926        H  0.75080169  0.39242210  0.80379026     0.17700
H927        H  0.78459791  0.48168412  0.64847703     0.17700
F928        F  0.82800579  0.45411006  0.66032422    -0.20100
C929        C  0.69559024  0.22475465  0.70710644    -0.21500
C930        C  0.71232551  0.25690274  0.73502976    -0.09500
C931        C  0.69062420  0.26138990  0.77398749     0.29300
C932        C  0.65198185  0.23675189  0.77988744    -0.21500
C933        C  0.63479279  0.20687942  0.74796545    -0.09500
C934        C  0.65737512  0.19954721  0.71422932     0.29300
F935        F  0.64169856  0.17068576  0.68312580    -0.20100
H936        H  0.71179884  0.22033555  0.67758104     0.17700
H937        H  0.63524841  0.24353784  0.80527009     0.17700
F938        F  0.70604435  0.29199071  0.80220120    -0.20100
C939        C  0.98564463  0.39886599  0.69657791    -0.21500
C940        C  0.95703048  0.38099292  0.73575843    -0.09500
C941        C  0.96603191  0.38614737  0.78746800     0.29300
C942        C  0.00304042  0.40482072  0.79966783    -0.21500
C943        C  0.03166645  0.41847792  0.76061156    -0.09500
C944        C  0.02271529  0.41741606  0.70881520     0.29300
F945        F  0.04990463  0.43104163  0.66988358    -0.20100
H946        H  0.97952487  0.39535589  0.65669145     0.17700
H947        H  0.00909982  0.40501425  0.83957345     0.17700
F948        F  0.93891888  0.36998619  0.82651648    -0.20100
C949        C  0.86813360  0.32349419  0.93308009    -0.21500
C950        C  0.83986592  0.32387677  0.90588384    -0.09500
C951        C  0.81353264  0.33003565  0.93232388     0.29300
C952        C  0.81471564  0.33411513  0.98496700    -0.21500
C953        C  0.84222956  0.33253057  0.01241714    -0.09500
C954        C  0.86949074  0.32798563  0.98581453     0.29300
F955        F  0.89636425  0.32614975  0.01094978    -0.20100
H956        H  0.88909515  0.31927925  0.91361834     0.17700
H957        H  0.79345686  0.33781715  0.00459502     0.17700
F958        F  0.78580931  0.33075508  0.90796781    -0.20100
C959        C  0.82010312  0.33569566  0.42996414    -0.21500
C960        C  0.84645218  0.32921876  0.40458960    -0.09500
C961        C  0.87502889  0.32988095  0.43252194     0.29300
C962        C  0.87521774  0.33407959  0.48542074    -0.21500
C963        C  0.84705041  0.33761699  0.51112458    -0.09500
C964        C  0.82037568  0.33996515  0.48243752     0.29300
F965        F  0.79371354  0.34536407  0.50534922    -0.20100
H966        H  0.79832640  0.33622710  0.40956960     0.17700
H967        H  0.89631039  0.33272981  0.50659095     0.17700
F968        F  0.90228556  0.32557310  0.40932859    -0.20100
C969        C  0.90596190  0.19373571  0.12323130    -0.21500
C970        C  0.90844550  0.20056843  0.06927865    -0.09500
C971        C  0.89460395  0.22317852  0.04901237     0.29300
C972        C  0.88091114  0.24027977  0.08193286    -0.21500
C973        C  0.88039713  0.23526141  0.13590367    -0.09500
C974        C  0.89192501  0.21060119  0.15619643     0.29300
F975        F  0.89143506  0.20420023  0.20775337    -0.20100
H976        H  0.91595898  0.17607723  0.14015863     0.17700
H977        H  0.87161624  0.25850277  0.06486905     0.17700
F978        F  0.89620154  0.23065035  0.99746691    -0.20100
C979        C  0.77327725  0.46008927  0.18580093    -0.21500
C980        C  0.74029015  0.44909287  0.21565524    -0.09500
C981        C  0.73222151  0.42542533  0.26140994     0.29300
C982        C  0.75384067  0.40872613  0.27251443    -0.21500
C983        C  0.78467424  0.41669329  0.23945004    -0.09500
C984        C  0.79577427  0.44489075  0.19833691     0.29300
F985        F  0.82565950  0.45350434  0.16573825    -0.20100
H986        H  0.78063519  0.47888667  0.15116117     0.17700
H987        H  0.74421788  0.38665392  0.30369977     0.17700
F988        F  0.70121905  0.41511195  0.29245496    -0.20100
C989        C  0.68978537  0.26075197  0.27679750    -0.21500
C990        C  0.71080056  0.25560306  0.23759255    -0.09500
C991        C  0.69264854  0.22486884  0.20731401     0.29300
C992        C  0.65405814  0.20227126  0.21264112    -0.21500
C993        C  0.63262453  0.21029441  0.24732017    -0.09500
C994        C  0.65081858  0.23849167  0.28131390     0.29300
F995        F  0.63095303  0.24766162  0.31418224    -0.20100
H996        H  0.70315912  0.28443563  0.30038119     0.17700
H997        H  0.64060332  0.18106464  0.18551716     0.17700
F998        F  0.71195876  0.21868316  0.16953304    -0.20100
C999        C  0.00400976  0.40482330  0.29811663    -0.21500
C1000       C  0.03288963  0.41694895  0.25969121    -0.09500
C1001       C  0.02446806  0.41611984  0.20767678     0.29300
C1002       C  0.98758137  0.39902291  0.19459004    -0.21500
C1003       C  0.95846201  0.38270058  0.23315601    -0.09500
C1004       C  0.96714793  0.38801416  0.28499243     0.29300
F1005       F  0.93959299  0.37380110  0.32333676    -0.20100
H1006       H  0.00957240  0.40515933  0.33824574     0.17700
H1007       H  0.98182841  0.39541007  0.15459890     0.17700
F1008       F  0.05194717  0.42900172  0.16932620    -0.20100
loop_ 
_geom_bond_atom_site_label_1 
_geom_bond_atom_site_label_2 
_geom_bond_distance 
_geom_bond_site_symmetry_2 
_ccdc_geom_bond_type 
O1           Ni7   1.916       .  S
O1           C22   1.272       .  A
O2          Ni25   1.906       .  S
O2           C11   1.275       .  A
O3           Ni7   1.877       .  S
O3          Ni25   1.880       .  S
O3          Ni19   1.881       .  S
O3           H26   0.967       .  S
C4           O21   1.264       .  A
C4           O13   1.276       .  A
C4          C973   1.496       .  S
O5          Ni24   1.927       .  S
O5           C11   1.274       .  A
O6          Ni24   1.897       .  S
O6            C8   1.270       .  A
Ni7          O10   1.910       .  S
Ni7          O12   1.911       .  S
C8           O18   1.289       .  A
C8         C1003   1.488       .  S
O9          Ni25   1.954       .  S
O9           C15   1.293       .  A
O10          C15   1.278       .  A
C11         C960   1.482       .  S
O12          C14   1.267       .  A
O13         Ni24   1.947       .  S
C14          O20   1.270       .  A
C14         C990   1.484       .  S
C15         C983   1.478       .  S
H16          O17   0.966       .  S
O17         Ni25   1.947       .  S
O17         Ni19   1.911       .  S
O17         Ni24   1.901       .  S
O18         Ni19   1.968       .  S
Ni19         O23   1.909       .  S
Ni19         O21   1.901       .  S
O20         Ni25   1.943       .  S
C22          O23   1.275       .  A
C22         C953   1.475       .  S
O27         Ni33   1.917       .  S
O27          C48   1.272       .  A
O28         Ni51   1.905       .  S
O28          C37   1.272       .  A
O29         Ni33   1.880       .  S
O29         Ni51   1.878       .  S
O29         Ni45   1.876       .  S
O29          H52   0.967       .  S
C30          O47   1.261       .  A
C30          O39   1.274       .  A
C30         C913   1.490       .  S
O31         Ni50   1.922       .  S
O31          C37   1.273       .  A
O32         Ni50   1.892       .  S
O32          C34   1.270       .  A
Ni33         O36   1.914       .  S
Ni33         O38   1.918       .  S
C34          O44   1.287       .  A
C34         C940   1.484       .  S
O35         Ni51   1.948       .  S
O35          C41   1.291       .  A
O36          C41   1.279       .  A
C37         C950   1.480       .  S
O38          C40   1.268       .  A
O39         Ni50   1.944       .  S
C40          O46   1.267       .  A
C40         C930   1.484       .  S
C41         C920   1.476       .  S
H42          O43   0.965       .  S
O43         Ni51   1.955       .  S
O43         Ni45   1.919       .  S
O43         Ni50   1.909       .  S
O44         Ni45   1.960       .  S
Ni45         O49   1.909       .  S
Ni45         O47   1.893       .  S
O46         Ni51   1.935       .  S
C48          O49   1.272       .  A
C48         C963   1.475       .  S
O53         Ni59   1.931       .  S
O53          C74   1.274       .  A
O54         Ni77   1.890       .  S
O54          C63   1.268       .  A
O55         Ni59   1.900       .  S
O55         Ni77   1.885       .  S
O55         Ni71   1.875       .  S
O55          H78   0.968       .  S
C56          O73   1.257       .  A
C56          O65   1.276       .  A
C56         C903   1.490       .  S
O57         Ni76   1.935       .  S
O57          C63   1.274       .  A
O58         Ni76   1.897       .  S
O58          C60   1.271       .  A
Ni59         O62   1.915       .  S
Ni59         O64   1.927       .  S
C60          O70   1.287       .  A
C60         C890   1.497       .  S
O61         Ni77   1.943       .  S
O61          C67   1.288       .  A
O62          C67   1.278       .  A
C63         C870   1.478       .  S
O64          C66   1.270       .  A
O65         Ni76   1.952       .  S
C66          O72   1.263       .  A
C66         C880   1.478       .  S
C67         C993   1.476       .  S
H68          O69   0.965       .  S
O69         Ni77   1.946       .  S
O69         Ni71   1.914       .  S
O69         Ni76   1.919       .  S
O70         Ni71   1.967       .  S
Ni71         O75   1.888       .  S
Ni71         O73   1.882       .  S
O72         Ni77   1.917       .  S
C74          O75   1.266       .  A
C74         C863   1.468       .  S
O79         Ni85   1.927       .  S
O79         C100   1.273       .  A
O80        Ni103   1.886       .  S
O80          C89   1.267       .  A
O81         Ni85   1.898       .  S
O81        Ni103   1.885       .  S
O81         Ni97   1.881       .  S
O81         H104   0.967       .  S
C82          O99   1.258       .  A
C82          O91   1.278       .  A
C82         C850   1.502       .  S
O83        Ni102   1.937       .  S
O83          C89   1.276       .  A
O84        Ni102   1.896       .  S
O84          C86   1.271       .  A
Ni85         O88   1.910       .  S
Ni85         O90   1.924       .  S
C86          O96   1.290       .  A
C86         C843   1.498       .  S
O87        Ni103   1.951       .  S
O87          C93   1.289       .  A
O88          C93   1.276       .  A
C89         C860   1.482       .  S
O90          C92   1.270       .  A
O91        Ni102   1.961       .  S
C92          O98   1.263       .  A
C92         C833   1.485       .  S
C93         C933   1.479       .  S
H94          O95   0.966       .  S
O95        Ni103   1.954       .  S
O95         Ni97   1.913       .  S
O95        Ni102   1.918       .  S
O96         Ni97   1.970       .  S
Ni97        O101   1.894       .  S
Ni97         O99   1.888       .  S
O98        Ni103   1.920       .  S
C100        O101   1.267       .  A
C100        C873   1.477       .  S
O105       Ni111   1.932       .  S
O105        C126   1.274       .  A
O106       Ni129   1.894       .  S
O106        C115   1.269       .  A
O107       Ni111   1.899       .  S
O107       Ni129   1.872       .  S
O107       Ni123   1.860       .  S
O107        H130   0.967       .  S
C108        O125   1.251       .  A
C108        O117   1.275       .  A
C108        C820   1.496       .  S
O109       Ni128   1.924       .  S
O109        C115   1.275       .  A
O110       Ni128   1.886       .  S
O110        C112   1.270       .  A
Ni111       O114   1.910       .  S
Ni111       O116   1.931       .  S
C112        O122   1.297       .  A
C112        C810   1.501       .  S
O113       Ni129   1.942       .  S
O113        C119   1.289       .  A
O114        C119   1.276       .  A
C115        C800   1.474       .  S
O116        C118   1.271       .  A
O117       Ni128   1.966       .  S
C118        O124   1.265       .  A
C118        C980   1.490       .  S
C119        C883   1.467       .  S
H120        O121   0.966       .  S
O121       Ni129   1.962       .  S
O121       Ni123   1.904       .  S
O121       Ni128   1.914       .  S
O122       Ni123   2.000       .  S
Ni123       O127   1.877       .  S
Ni123       O125   1.880       .  S
O124       Ni129   1.929       .  S
C126        O127   1.264       .  A
C126        C793   1.469   1_554  S
O131       Ni137   1.933       .  S
O131        C152   1.276       .  A
O132       Ni155   1.896       .  S
O132        C141   1.269       .  A
O133       Ni137   1.899       .  S
O133       Ni155   1.874       .  S
O133       Ni149   1.872       .  S
O133        H156   0.967       .  S
C134        O151   1.254       .  A
C134        O143   1.273       .  A
C134        C783   1.496       .  S
O135       Ni154   1.910       .  S
O135        C141   1.272       .  A
O136       Ni154   1.881       .  S
O136        C138   1.269       .  A
Ni137       O140   1.917       .  S
Ni137       O142   1.929       .  S
C138        O148   1.301       .  A
C138        C770   1.505       .  S
O139       Ni155   1.948       .  S
O139        C145   1.289       .  A
O140        C145   1.276       .  A
C141        C790   1.457       .  S
O142        C144   1.272       .  A
O143       Ni154   1.955       .  S
C144        O150   1.266       .  A
C144        C923   1.491       .  S
C145        C830   1.476       .  S
H146        O147   0.966       .  S
O147       Ni155   1.964       .  S
O147       Ni149   1.902       .  S
O147       Ni154   1.909       .  S
O148       Ni149   2.012       .  S
Ni149       O153   1.884       .  S
Ni149       O151   1.902       .  S
O150       Ni155   1.932       .  S
C152        O153   1.268       .  A
C152        C803   1.467       .  S
O157       Ni163   1.938       .  S
O157        C178   1.275       .  A
O158       Ni181   1.894       .  S
O158        C167   1.268       .  A
O159       Ni163   1.899       .  S
O159       Ni181   1.882       .  S
O159       Ni175   1.873       .  S
O159        H182   0.967       .  S
C160        O177   1.255       .  A
C160        O169   1.274       .  A
C160        C740   1.491       .  S
O161       Ni180   1.911       .  S
O161        C167   1.273       .  A
O162       Ni180   1.890       .  S
O162        C164   1.270       .  A
Ni163       O166   1.925       .  S
Ni163       O168   1.924       .  S
C164        O174   1.295       .  A
C164        C893   1.495       .  S
O165       Ni181   1.936       .  S
O165        C171   1.285       .  A
O166        C171   1.278       .  A
C167        C730   1.470       .  S
O168        C170   1.270       .  A
O169       Ni180   1.958       .  S
C170        O176   1.268       .  A
C170        C750   1.483       .  S
C171        C763   1.475       .  S
H172        O173   0.966       .  S
O173       Ni181   1.955       .  S
O173       Ni175   1.896       .  S
O173       Ni180   1.907       .  S
O174       Ni175   1.996       .  S
Ni175       O179   1.879       .  S
Ni175       O177   1.902       .  S
O176       Ni181   1.934       .  S
C178        O179   1.265       .  A
C178        C723   1.474       .  S
O183       Ni189   1.934       .  S
O183        C204   1.275       .  A
O184       Ni207   1.899       .  S
O184        C193   1.270       .  A
O185       Ni189   1.904       .  S
O185       Ni207   1.881       .  S
O185       Ni201   1.881       .  S
O185        H208   0.966       .  S
C186        O203   1.258       .  A
C186        O195   1.273       .  A
C186        C690   1.494       .  S
O187       Ni206   1.912       .  S
O187        C193   1.272       .  A
O188       Ni206   1.892       .  S
O188        C190   1.271       .  A
Ni189       O192   1.919       .  S
Ni189       O194   1.933       .  S
C190        O200   1.292       .  A
C190        C840   1.493       .  S
O191       Ni207   1.950       .  S
O191        C197   1.289       .  A
O192        C197   1.277       .  A
C193        C720   1.465       .  S
O194        C196   1.273       .  A
O195       Ni206   1.955       .  S
C196        O202   1.265       .  A
C196        C700   1.488       .  S
C197        C713   1.483       .  S
H198        O199   0.966       .  S
O199       Ni207   1.962       .  S
O199       Ni201   1.897       .  S
O199       Ni206   1.913       .  S
O200       Ni201   1.986       .  S
Ni201       O205   1.873       .  S
Ni201       O203   1.910       .  S
O202       Ni207   1.918       .  S
C204        O205   1.262       .  A
C204        C733   1.460       .  S
O209       Ni215   1.919       .  S
O209        C230   1.274       .  A
O210       Ni233   1.902       .  S
O210        C219   1.271       .  A
O211       Ni215   1.879       .  S
O211       Ni233   1.873       .  S
O211       Ni227   1.877       .  S
O211        H234   0.967       .  S
C212        O229   1.262       .  A
C212        O221   1.276       .  A
C212        C680   1.502       .  S
O213       Ni232   1.927       .  S
O213        C219   1.274       .  A
O214       Ni232   1.897       .  S
O214        C216   1.271       .  A
Ni215       O218   1.912       .  S
Ni215       O220   1.922       .  S
C216        O226   1.288       .  A
C216       C1000   1.489       .  S
O217       Ni233   1.952       .  S
O217        C223   1.293       .  A
O218        C223   1.280       .  A
C219        C663   1.474       .  S
O220        C222   1.269       .  A
O221       Ni232   1.952       .  S
C222        O228   1.265       .  A
C222        C670   1.481       .  S
C223        C753   1.475       .  S
H224        O225   0.966       .  S
O225       Ni233   1.952       .  S
O225       Ni227   1.913       .  S
O225       Ni232   1.907       .  S
O226       Ni227   1.966       .  S
Ni227       O231   1.900       .  S
Ni227       O229   1.897       .  S
O228       Ni233   1.924       .  S
C230        O231   1.272       .  A
C230        C653   1.473       .  S
O235       Ni241   1.924       .  S
O235        C256   1.277       .  A
O236       Ni259   1.895       .  S
O236        C245   1.269       .  A
O237       Ni241   1.879       .  S
O237       Ni259   1.865       .  S
O237       Ni253   1.869       .  S
O237        H260   0.967       .  S
C238        O255   1.259       .  A
C238        O247   1.273       .  A
C238        C643   1.499       .  S
O239       Ni258   1.920       .  S
O239        C245   1.271       .  A
O240       Ni258   1.890       .  S
O240        C242   1.271       .  A
Ni241       O244   1.919       .  S
Ni241       O246   1.925       .  S
C242        O252   1.290       .  A
C242        C943   1.483       .  S
O243       Ni259   1.949       .  S
O243        C249   1.292       .  A
O244        C249   1.278       .  A
C245        C650   1.469       .  S
O246        C248   1.269       .  A
O247       Ni258   1.945       .  S
C248        O254   1.266       .  A
C248        C630   1.484       .  S
C249        C703   1.473       .  S
H250        O251   0.965       .  S
O251       Ni259   1.963       .  S
O251       Ni253   1.926       .  S
O251       Ni258   1.915       .  S
O252       Ni253   1.967       .  S
Ni253       O257   1.902       .  S
Ni253       O255   1.899       .  S
O254       Ni259   1.935       .  S
C256        O257   1.274       .  A
C256        C660   1.478       .  S
O261       Ni267   1.911       .  S
O261        C282   1.269       .  A
O262       Ni285   1.904       .  S
O262        C271   1.273       .  A
O263       Ni267   1.887       .  S
O263       Ni285   1.889       .  S
O263       Ni279   1.886       .  S
O263        H286   0.967       .  S
C264        O281   1.265       .  A
C264        O273   1.279       .  A
C264        C620   1.490       .  S
O265       Ni284   1.932       .  S
O265        C271   1.275       .  A
O266       Ni284   1.903       .  S
O266        C268   1.271       .  A
Ni267       O270   1.899       .  S
Ni267       O272   1.913       .  S
C268        O278   1.289       .  A
C268        C813   1.501       .  S
O269       Ni285   1.951       .  S
O269        C275   1.291       .  A
O270        C275   1.275       .  A
C271        C610   1.480       .  S
O272        C274   1.268       .  A
O273       Ni284   1.949       .  S
C274        O280   1.268       .  A
C274        C760   1.487       .  S
C275        C673   1.473       .  S
H276        O277   0.966       .  S
O277       Ni285   1.938       .  S
O277       Ni279   1.908       .  S
O277       Ni284   1.899       .  S
O278       Ni279   1.973       .  S
Ni279       O283   1.913       .  S
Ni279       O281   1.896       .  S
O280       Ni285   1.935       .  S
C282        O283   1.273       .  A
C282        C600   1.474       .  S
O287       Ni293   1.916       .  S
O287        C308   1.272       .  A
O288       Ni311   1.908       .  S
O288        C297   1.274       .  A
O289       Ni293   1.885       .  S
O289       Ni311   1.886       .  S
O289       Ni305   1.889       .  S
O289        H312   0.967       .  S
C290        O307   1.265       .  A
C290        O299   1.277       .  A
C290        C593   1.497       .  S
O291       Ni310   1.924       .  S
O291        C297   1.273       .  A
O292       Ni310   1.897       .  S
O292        C294   1.270       .  A
Ni293       O296   1.906       .  S
Ni293       O298   1.916       .  S
C294        O304   1.291       .  A
C294        C773   1.501       .  S
O295       Ni311   1.956       .  S
O295        C301   1.292       .  A
O296        C301   1.277       .  A
C297        C603   1.484       .  S
O298        C300   1.269       .  A
O299       Ni310   1.946       .  S
C300        O306   1.272       .  A
C300        C710   1.490       .  S
C301        C633   1.477       .  S
H302        O303   0.966       .  S
O303       Ni311   1.947       .  S
O303       Ni305   1.912       .  S
O303       Ni310   1.904       .  S
O304       Ni305   1.979       .  S
Ni305       O309   1.910       .  S
Ni305       O307   1.902       .  S
O306       Ni311   1.944       .  S
C308        O309   1.274       .  A
C308        C613   1.480       .  S
O313       Ni319   1.936       .  S
O313        C334   1.282       .  A
O314       Ni337   1.906       .  S
O314        C323   1.276   1_565  A
O315       Ni319   1.864       .  S
O315       Ni337   1.873   1_554  S
O315       Ni331   1.870       .  S
O315        H338   0.967       .  S
C316        O333   1.266       .  A
C316        O325   1.282   1_554  A
C316        C900   1.493       .  S
O317       Ni336   1.959       .  S
O317        C323   1.283       .  A
O318       Ni336   1.901       .  S
O318        C320   1.266   1_545  A
Ni319       O322   1.917       .  S
Ni319       O324   1.940   1_565  S
C320        O330   1.287   1_556  A
C320        C693   1.503       .  S
O321       Ni337   1.939       .  S
O321        C327   1.295       .  A
O322        C327   1.283   1_554  A
C323        C550   1.492   1_545  S
O324        C326   1.274   1_554  A
O325       Ni336   1.958       .  S
C326        O332   1.263       .  A
C326        C580   1.484       .  S
C327        C570   1.477       .  S
H328        O329   0.966       .  S
O329       Ni337   1.929   1_545  S
O329       Ni331   1.905   1_546  S
O329       Ni336   1.893       .  S
O330       Ni331   1.977       .  S
Ni331       O335   1.922       .  S
Ni331       O333   1.903   1_565  S
O332       Ni337   1.913   1_545  S
C334        O335   1.283       .  A
C334        C560   1.497       .  S
O339       Ni345   1.933       .  S
O339        C360   1.282       .  A
O340       Ni363   1.912       .  S
O340        C349   1.280       .  A
O341       Ni345   1.866       .  S
O341       Ni363   1.873       .  S
O341       Ni357   1.879       .  S
O341        H364   0.967       .  S
C342        O359   1.268       .  A
C342        O351   1.284       .  A
C342        C853   1.499       .  S
O343       Ni362   1.964       .  S
O343        C349   1.286   1_545  A
O344       Ni362   1.896       .  S
O344        C346   1.264   1_545  A
Ni345       O348   1.919       .  S
Ni345       O350   1.939   1_565  S
C346        O356   1.290       .  A
C346        C743   1.503       .  S
O347       Ni363   1.961       .  S
O347        C353   1.301       .  A
O348        C353   1.282       .  A
C349        C563   1.498       .  S
O350        C352   1.274       .  A
O351       Ni362   1.965       .  S
C352        O358   1.264       .  A
C352        C540   1.490       .  S
C353        C530   1.497       .  S
H354        O355   0.965       .  S
O355       Ni363   1.939   1_545  S
O355       Ni357   1.899   1_545  S
O355       Ni362   1.887       .  S
O356       Ni357   1.985       .  S
Ni357       O361   1.917       .  S
Ni357       O359   1.911   1_565  S
O358       Ni363   1.917   1_545  S
C360        O361   1.281       .  A
C360        C553   1.494       .  S
O365       Ni371   1.925   1_655  S
O365        C386   1.275       .  A
O366       Ni389   1.897   1_655  S
O366        C375   1.268       .  A
O367       Ni371   1.892       .  S
O367       Ni389   1.867   1_554  S
O367       Ni383   1.870   1_455  S
O367        H390   0.967       .  S
C368        O385   1.259       .  A
C368        O377   1.271   1_554  A
C368        C970   1.494       .  S
O369       Ni388   1.921       .  S
O369        C375   1.272       .  A
O370       Ni388   1.889       .  S
O370        C372   1.270   1_655  A
Ni371       O374   1.917       .  S
Ni371       O376   1.922   1_455  S
C372        O382   1.289   1_556  A
C372        C640   1.476       .  S
O373       Ni389   1.946       .  S
O373        C379   1.290       .  A
O374        C379   1.277   1_554  A
C375        C503   1.475       .  S
O376        C378   1.269   1_554  A
O377       Ni388   1.939       .  S
C378        O384   1.265       .  A
C378        C520   1.485       .  S
C379        C583   1.472       .  S
H380        O381   0.965       .  S
O381       Ni389   1.959   1_655  S
O381       Ni383   1.914   1_556  S
O381       Ni388   1.916       .  S
O382       Ni383   1.968   1_455  S
Ni383       O387   1.885   1_655  S
Ni383       O385   1.895       .  S
O384       Ni389   1.911   1_655  S
C386        O387   1.270   1_655  A
C386        C513   1.467       .  S
O391       Ni397   1.931   1_655  S
O391        C412   1.279       .  A
O392       Ni415   1.896       .  S
O392        C401   1.270   1_455  A
O393       Ni397   1.881       .  S
O393       Ni415   1.859       .  S
O393       Ni409   1.862   1_455  S
O393        H416   0.967       .  S
C394        O411   1.256       .  A
C394        O403   1.268       .  A
C394        C910   1.495       .  S
O395       Ni414   1.907       .  S
O395        C401   1.270       .  A
O396       Ni414   1.890       .  S
O396        C398   1.272   1_655  A
Ni397       O400   1.917       .  S
Ni397       O402   1.934   1_455  S
C398        O408   1.293       .  A
C398        C683   1.481       .  S
O399       Ni415   1.952       .  S
O399        C405   1.295       .  A
O400        C405   1.280       .  A
C401        C510   1.463       .  S
O402        C404   1.272       .  A
O403       Ni414   1.939       .  S
C404        O410   1.263       .  A
C404        C493   1.490       .  S
C405        C543   1.477       .  S
H406        O407   0.965       .  S
O407       Ni415   1.967   1_655  S
O407       Ni409   1.914       .  S
O407       Ni414   1.917       .  S
O408       Ni409   1.975   1_455  S
Ni409       O413   1.888   1_655  S
Ni409       O411   1.886       .  S
O410       Ni415   1.910   1_655  S
C412        O413   1.272   1_655  A
C412        C500   1.470       .  S
O417       Ni423   1.924       .  S
O417        C438   1.277       .  A
O418       Ni441   1.920   1_554  S
O418        C427   1.277       .  A
O419       Ni423   1.872       .  S
O419       Ni441   1.872       .  S
O419       Ni435   1.871       .  S
O419        H442   0.967       .  S
C420        O437   1.263       .  A
C420        O429   1.273       .  A
C420        C590   1.486       .  S
O421       Ni440   1.926       .  S
O421        C427   1.275       .  A
O422       Ni440   1.902   1_556  S
O422        C424   1.271       .  A
Ni423       O426   1.913       .  S
Ni423       O428   1.924       .  S
C424        O434   1.289       .  A
C424        C823   1.481   1_556  S
O425       Ni441   1.946       .  S
O425        C431   1.296       .  A
O426        C431   1.280       .  A
C427        C480   1.489       .  S
O428        C430   1.271       .  A
O429       Ni440   1.938   1_556  S
C430        O436   1.264       .  A
C430        C523   1.484       .  S
C431        C573   1.486       .  S
H432        O433   0.965       .  S
O433       Ni441   1.949       .  S
O433       Ni435   1.909       .  S
O433       Ni440   1.899   1_556  S
O434       Ni435   1.965       .  S
Ni435       O439   1.910       .  S
Ni435       O437   1.902       .  S
O436       Ni441   1.910       .  S
C438        O439   1.278       .  A
C438        C470   1.479       .  S
O443       Ni449   1.920       .  S
O443        C464   1.276       .  A
O444       Ni467   1.905       .  S
O444        C453   1.276       .  A
O445       Ni449   1.873       .  S
O445       Ni467   1.871       .  S
O445       Ni461   1.884       .  S
O445        H468   0.967       .  S
C446        O463   1.271       .  A
C446        O455   1.281       .  A
C446        C623   1.486       .  S
O447       Ni466   1.945       .  S
O447        C453   1.280       .  A
O448       Ni466   1.896       .  S
O448        C450   1.264       .  A
Ni449       O452   1.914       .  S
Ni449       O454   1.927       .  S
C450        O460   1.290       .  A
C450        C780   1.505       .  S
O451       Ni467   1.961       .  S
O451        C457   1.299       .  A
O452        C457   1.280       .  A
C453        C473   1.486       .  S
O454        C456   1.271       .  A
O455       Ni466   1.945       .  S
C456        O462   1.265       .  A
C456        C490   1.489       .  S
C457        C533   1.497       .  S
H458        O459   0.966       .  S
O459       Ni467   1.937       .  S
O459       Ni461   1.895       .  S
O459       Ni466   1.890       .  S
O460       Ni461   1.987       .  S
Ni461       O465   1.918       .  S
Ni461       O463   1.913       .  S
O462       Ni467   1.913       .  S
C464        O465   1.282       .  A
C464        C483   1.484       .  S
C469        C470   1.402       .  A
C469        C474   1.403       .  A
C469        H476   1.083       .  S
C470        C471   1.410       .  A
C471        C472   1.393       .  A
C471        F478   1.358       .  S
C472        C473   1.404       .  A
C472        H477   1.083       .  S
C473        C474   1.414       .  A
C474        F475   1.357       .  S
C479        C480   1.413       .  A
C479        C484   1.402       .  A
C479        H486   1.083       .  S
C480        C481   1.405       .  A
C481        C482   1.397       .  A
C481        F488   1.358       .  S
C482        C483   1.410       .  A
C482        H487   1.083       .  S
C483        C484   1.403       .  A
C484        F485   1.357       .  S
C489        C490   1.412       .  A
C489        C494   1.402       .  A
C489        H496   1.083       .  S
C490        C491   1.406       .  A
C491        C492   1.399   1_565  A
C491        F498   1.358       .  S
C492        C493   1.412       .  A
C492        H497   1.083       .  S
C493        C494   1.404   1_545  A
C494        F495   1.357   1_565  S
C499        C500   1.404       .  A
C499        C504   1.394       .  A
C499        H506   1.083       .  S
C500        C501   1.404       .  A
C501        C502   1.395       .  A
C501        F508   1.356       .  S
C502        C503   1.407       .  A
C502        H507   1.083       .  S
C503        C504   1.407       .  A
C504        F505   1.358       .  S
C509        C510   1.404       .  A
C509        C514   1.392       .  A
C509        H516   1.084       .  S
C510        C511   1.402       .  A
C511        C512   1.391       .  A
C511        F518   1.358       .  S
C512        C513   1.406       .  A
C512        H517   1.083       .  S
C513        C514   1.404       .  A
C514        F515   1.358       .  S
C519        C520   1.411       .  A
C519        C524   1.396   1_545  A
C519        H526   1.083       .  S
C520        C521   1.405   1_546  A
C521        C522   1.399   1_554  A
C521        F528   1.358       .  S
C522        C523   1.412       .  A
C522        H527   1.083   1_556  S
C523        C524   1.404       .  A
C524        F525   1.357       .  S
C529        C530   1.397       .  A
C529        C534   1.403   1_455  A
C529        H536   1.083       .  S
C530        C531   1.423       .  A
C531        C532   1.403   1_455  A
C531        F538   1.358       .  S
C532        C533   1.398       .  A
C532        H537   1.083       .  S
C533        C534   1.423       .  A
C534        F535   1.358       .  S
C539        C540   1.401       .  A
C539        C544   1.402       .  A
C539        H546   1.083       .  S
C540        C541   1.416       .  A
C541        C542   1.405       .  A
C541        F548   1.358       .  S
C542        C543   1.400       .  A
C542        H547   1.083       .  S
C543        C544   1.412       .  A
C544        F545   1.358       .  S
C549        C550   1.412       .  A
C549        C554   1.412       .  A
C549        H556   1.083       .  S
C550        C551   1.406       .  A
C551        C552   1.392       .  A
C551        F558   1.358   1_565  S
C552        C553   1.407       .  A
C552        H557   1.083       .  S
C553        C554   1.410       .  A
C554        F555   1.357       .  S
C559        C560   1.408       .  A
C559        C564   1.412       .  A
C559        H566   1.083       .  S
C560        C561   1.411       .  A
C561        C562   1.396       .  A
C561        F568   1.358       .  S
C562        C563   1.404       .  A
C562        H567   1.083       .  S
C563        C564   1.415       .  A
C564        F565   1.356       .  S
C569        C570   1.394       .  A
C569        C574   1.397   1_455  A
C569        H576   1.084       .  S
C570        C571   1.416   1_556  A
C571        C572   1.398   1_455  A
C571        F578   1.358       .  S
C572        C573   1.397   1_554  A
C572        H577   1.083       .  S
C573        C574   1.422       .  A
C574        F575   1.358       .  S
C579        C580   1.400       .  A
C579        C584   1.405       .  A
C579        H586   1.083   1_556  S
C580        C581   1.412       .  A
C581        C582   1.402       .  A
C581        F588   1.358       .  S
C582        C583   1.401       .  A
C582        H587   1.084       .  S
C583        C584   1.411       .  A
C584        F585   1.358   1_556  S
C589        C590   1.410       .  A
C589        C594   1.403       .  A
C589        H596   1.084       .  S
C590        C591   1.403       .  A
C591        C592   1.402       .  A
C591        F598   1.358       .  S
C592        C593   1.414       .  A
C592        H597   1.083       .  S
C593        C594   1.408       .  A
C594        F595   1.357       .  S
C599        C600   1.407       .  A
C599        C604   1.394       .  A
C599        H606   1.084       .  S
C600        C601   1.401       .  A
C601        C602   1.399       .  A
C601        F608   1.357       .  S
C602        C603   1.413       .  A
C602        H607   1.083       .  S
C603        C604   1.406       .  A
C604        F605   1.358       .  S
C609        C610   1.410       .  A
C609        C614   1.401   1_554  A
C609        H616   1.083       .  S
C610        C611   1.404       .  A
C611        C612   1.392   1_554  A
C611        F618   1.358       .  S
C612        C613   1.408       .  A
C612        H617   1.083       .  S
C613        C614   1.405       .  A
C614        F615   1.357       .  S
C619        C620   1.413       .  A
C619        C624   1.403       .  A
C619        H626   1.084       .  S
C620        C621   1.404       .  A
C621        C622   1.401       .  A
C621        F628   1.357       .  S
C622        C623   1.410       .  A
C622        H627   1.084       .  S
C623        C624   1.404       .  A
C624        F625   1.358       .  S
C629        C630   1.410       .  A
C629        C634   1.405       .  A
C629        H636   1.084       .  S
C630        C631   1.401       .  A
C631        C632   1.401       .  A
C631        F638   1.357       .  S
C632        C633   1.409       .  A
C632        H637   1.084       .  S
C633        C634   1.404       .  A
C634        F635   1.357       .  S
C639        C640   1.401       .  A
C639        C644   1.405       .  A
C639        H646   1.084       .  S
C640        C641   1.409       .  A
C641        C642   1.403       .  A
C641        F648   1.358       .  S
C642        C643   1.405       .  A
C642        H647   1.083       .  S
C643        C644   1.418       .  A
C644        F645   1.356       .  S
C649        C650   1.407       .  A
C649        C654   1.398       .  A
C649        H656   1.083       .  S
C650        C651   1.402       .  A
C651        C652   1.389       .  A
C651        F658   1.358       .  S
C652        C653   1.406       .  A
C652        H657   1.083       .  S
C653        C654   1.405       .  A
C654        F655   1.357       .  S
C659        C660   1.408   1_554  A
C659        C664   1.392       .  A
C659        H666   1.083   1_554  S
C660        C661   1.405   1_556  A
C661        C662   1.398       .  A
C661        F668   1.356   1_554  S
C662        C663   1.408       .  A
C662        H667   1.083       .  S
C663        C664   1.402       .  A
C664        F665   1.358       .  S
C669        C670   1.399       .  A
C669        C674   1.399       .  A
C669        H676   1.083       .  S
C670        C671   1.411       .  A
C671        C672   1.404       .  A
C671        F678   1.355       .  S
C672        C673   1.401       .  A
C672        H677   1.084       .  S
C673        C674   1.412       .  A
C674        F675   1.358       .  S
C679        C680   1.416       .  A
C679        C684   1.404       .  A
C679        H686   1.082       .  S
C680        C681   1.407       .  A
C681        C682   1.405       .  A
C681        F688   1.357       .  S
C682        C683   1.411       .  A
C682        H687   1.084       .  S
C683        C684   1.400       .  A
C684        F685   1.357       .  S
C689        C690   1.415       .  A
C689        C694   1.416       .  A
C689        H696   1.083       .  S
C690        C691   1.402       .  A
C691        C692   1.394       .  A
C691        F698   1.358       .  S
C692        C693   1.414       .  A
C692        H697   1.083       .  S
C693        C694   1.408       .  A
C694        F695   1.356       .  S
C699        C700   1.400       .  A
C699        C704   1.401       .  A
C699        H706   1.083       .  S
C700        C701   1.415       .  A
C701        C702   1.405       .  A
C701        F708   1.357       .  S
C702        C703   1.401       .  A
C702        H707   1.083       .  S
C703        C704   1.411       .  A
C704        F705   1.358       .  S
C709        C710   1.410       .  A
C709        C714   1.410       .  A
C709        H716   1.083       .  S
C710        C711   1.405       .  A
C711        C712   1.401       .  A
C711        F718   1.358       .  S
C712        C713   1.408       .  A
C712        H717   1.084       .  S
C713        C714   1.406       .  A
C714        F715   1.357       .  S
C719        C720   1.402       .  A
C719        C724   1.396       .  A
C719        H726   1.084       .  S
C720        C721   1.404       .  A
C721        C722   1.390       .  A
C721        F728   1.358       .  S
C722        C723   1.404       .  A
C722        H727   1.083       .  S
C723        C724   1.410       .  A
C724        F725   1.357       .  S
C729        C730   1.405       .  A
C729        C734   1.389   1_554  A
C729        H736   1.083       .  S
C730        C731   1.410       .  A
C731        C732   1.393       .  A
C731        F738   1.358       .  S
C732        C733   1.400   1_554  A
C732        H737   1.084   1_554  S
C733        C734   1.403       .  A
C734        F735   1.358       .  S
C739        C740   1.415       .  A
C739        C744   1.415       .  A
C739        H746   1.083       .  S
C740        C741   1.400       .  A
C741        C742   1.392       .  A
C741        F748   1.359       .  S
C742        C743   1.416       .  A
C742        H747   1.083       .  S
C743        C744   1.407       .  A
C744        F745   1.356       .  S
C749        C750   1.409       .  A
C749        C754   1.404       .  A
C749        H756   1.084       .  S
C750        C751   1.403       .  A
C751        C752   1.401       .  A
C751        F758   1.357       .  S
C752        C753   1.409       .  A
C752        H757   1.084       .  S
C753        C754   1.404       .  A
C754        F755   1.355       .  S
C759        C760   1.402       .  A
C759        C764   1.395       .  A
C759        H766   1.083       .  S
C760        C761   1.414       .  A
C761        C762   1.409       .  A
C761        F768   1.357       .  S
C762        C763   1.404       .  A
C762        H767   1.083       .  S
C763        C764   1.406       .  A
C764        F765   1.358       .  S
C769        C770   1.402       .  A
C769        C774   1.408       .  A
C769        H776   1.083       .  S
C770        C771   1.423       .  A
C771        C772   1.409       .  A
C771        F778   1.358       .  S
C772        C773   1.400       .  A
C772        H777   1.083       .  S
C773        C774   1.419       .  A
C774        F775   1.358       .  S
C779        C780   1.416       .  A
C779        C784   1.394       .  A
C779        H786   1.083       .  S
C780        C781   1.407       .  A
C781        C782   1.416       .  A
C781        F788   1.356       .  S
C782        C783   1.417       .  A
C782        H787   1.083       .  S
C783        C784   1.400       .  A
C784        F785   1.358       .  S
C789        C790   1.400       .  A
C789        C794   1.388       .  A
C789        H796   1.084       .  S
C790        C791   1.401       .  A
C791        C792   1.393       .  A
C791        F798   1.357       .  S
C792        C793   1.407       .  A
C792        H797   1.083       .  S
C793        C794   1.407       .  A
C794        F795   1.357       .  S
C799        C800   1.405       .  A
C799        C804   1.393       .  A
C799        H806   1.083       .  S
C800        C801   1.409       .  A
C801        C802   1.395       .  A
C801        F808   1.358       .  S
C802        C803   1.403       .  A
C802        H807   1.084       .  S
C803        C804   1.403       .  A
C804        F805   1.357       .  S
C809        C810   1.402       .  A
C809        C814   1.408       .  A
C809        H816   1.083       .  S
C810        C811   1.419       .  A
C811        C812   1.408       .  A
C811        F818   1.358       .  S
C812        C813   1.401       .  A
C812        H817   1.083       .  S
C813        C814   1.419       .  A
C814        F815   1.358       .  S
C819        C820   1.417       .  A
C819        C824   1.407   1_554  A
C819        H826   1.080       .  S
C820        C821   1.401       .  A
C821        C822   1.401       .  A
C821        F828   1.357       .  S
C822        C823   1.410       .  A
C822        H827   1.080       .  S
C823        C824   1.400   1_554  A
C824        F825   1.357       .  S
C829        C830   1.408       .  A
C829        C834   1.398       .  A
C829        H836   1.084       .  S
C830        C831   1.404       .  A
C831        C832   1.407       .  A
C831        F838   1.357       .  S
C832        C833   1.412       .  A
C832        H837   1.083       .  S
C833        C834   1.401       .  A
C834        F835   1.357       .  S
C839        C840   1.401       .  A
C839        C844   1.402   1_565  A
C839        H846   1.083       .  S
C840        C841   1.416       .  A
C841        C842   1.407   1_565  A
C841        F848   1.358       .  S
C842        C843   1.404       .  A
C842        H847   1.083       .  S
C843        C844   1.418       .  A
C844        F845   1.358       .  S
C849        C850   1.402       .  A
C849        C854   1.405       .  A
C849        H856   1.083       .  S
C850        C851   1.420       .  A
C851        C852   1.408       .  A
C851        F858   1.357       .  S
C852        C853   1.402       .  A
C852        H857   1.083       .  S
C853        C854   1.417       .  A
C854        F855   1.356       .  S
C859        C860   1.408       .  A
C859        C864   1.392       .  A
C859        H866   1.083       .  S
C860        C861   1.410       .  A
C861        C862   1.397       .  A
C861        F868   1.357       .  S
C862        C863   1.402   1_556  A
C862        H867   1.083   1_556  S
C863        C864   1.403   1_554  A
C864        F865   1.358       .  S
C869        C870   1.403       .  A
C869        C874   1.390       .  A
C869        H876   1.084       .  S
C870        C871   1.409       .  A
C871        C872   1.399       .  A
C871        F878   1.357       .  S
C872        C873   1.405       .  A
C872        H877   1.083       .  S
C873        C874   1.409       .  A
C874        F875   1.358       .  S
C879        C880   1.407       .  A
C879        C884   1.401       .  A
C879        H886   1.084       .  S
C880        C881   1.401       .  A
C881        C882   1.401       .  A
C881        F888   1.357       .  S
C882        C883   1.409       .  A
C882        H887   1.084       .  S
C883        C884   1.403       .  A
C884        F885   1.357       .  S
C889        C890   1.414       .  A
C889        C894   1.402   1_545  A
C889        H896   1.083       .  S
C890        C891   1.405       .  A
C891        C892   1.407   1_545  A
C891        F898   1.357       .  S
C892        C893   1.415       .  A
C892        H897   1.083       .  S
C893        C894   1.404       .  A
C894        F895   1.357       .  S
C899        C900   1.402       .  A
C899        C904   1.406       .  A
C899        H906   1.083       .  S
C900        C901   1.416       .  A
C901        C902   1.399       .  A
C901        F908   1.355       .  S
C902        C903   1.398       .  A
C902        H907   1.083       .  S
C903        C904   1.417       .  A
C904        F905   1.357       .  S
C909        C910   1.413       .  A
C909        C914   1.401       .  A
C909        H916   1.081       .  S
C910        C911   1.406       .  A
C911        C912   1.402       .  A
C911        F918   1.357       .  S
C912        C913   1.412       .  A
C912        H917   1.083       .  S
C913        C914   1.404       .  A
C914        F915   1.357       .  S
C919        C920   1.401       .  A
C919        C924   1.407       .  A
C919        H926   1.083       .  S
C920        C921   1.411       .  A
C921        C922   1.399       .  A
C921        F928   1.358       .  S
C922        C923   1.401       .  A
C922        H927   1.083       .  S
C923        C924   1.416       .  A
C924        F925   1.357       .  S
C929        C930   1.400       .  A
C929        C934   1.398       .  A
C929        H936   1.083       .  S
C930        C931   1.411       .  A
C931        C932   1.408       .  A
C931        F938   1.358       .  S
C932        C933   1.404       .  A
C932        H937   1.083       .  S
C933        C934   1.410       .  A
C934        F935   1.358       .  S
C939        C940   1.398       .  A
C939        C944   1.403   1_655  A
C939        H946   1.083       .  S
C940        C941   1.416       .  A
C941        C942   1.401   1_655  A
C941        F948   1.358       .  S
C942        C943   1.397       .  A
C942        H947   1.083       .  S
C943        C944   1.417       .  A
C944        F945   1.358       .  S
C949        C950   1.411       .  A
C949        C954   1.399       .  A
C949        H956   1.083       .  S
C950        C951   1.405       .  A
C951        C952   1.393       .  A
C951        F958   1.358       .  S
C952        C953   1.408   1_556  A
C952        H957   1.084   1_556  S
C953        C954   1.402   1_554  A
C954        F955   1.357   1_556  S
C959        C960   1.400       .  A
C959        C964   1.390       .  A
C959        H966   1.083       .  S
C960        C961   1.416       .  A
C961        C962   1.401       .  A
C961        F968   1.357       .  S
C962        C963   1.401       .  A
C962        H967   1.083       .  S
C963        C964   1.409       .  A
C964        F965   1.358       .  S
C969        C970   1.413       .  A
C969        C974   1.404       .  A
C969        H976   1.083       .  S
C970        C971   1.405       .  A
C971        C972   1.401       .  A
C971        F978   1.358   1_554  S
C972        C973   1.413       .  A
C972        H977   1.083       .  S
C973        C974   1.406       .  A
C974        F975   1.357       .  S
C979        C980   1.400       .  A
C979        C984   1.401       .  A
C979        H986   1.083       .  S
C980        C981   1.415       .  A
C981        C982   1.407       .  A
C981        F988   1.357       .  S
C982        C983   1.402       .  A
C982        H987   1.083       .  S
C983        C984   1.412       .  A
C984        F985   1.358       .  S
C989        C990   1.410       .  A
C989        C994   1.408       .  A
C989        H996   1.083       .  S
C990        C991   1.404       .  A
C991        C992   1.397       .  A
C991        F998   1.358       .  S
C992        C993   1.406       .  A
C992        H997   1.084       .  S
C993        C994   1.405       .  A
C994        F995   1.357       .  S
C999       C1000   1.398       .  A
C999       C1004   1.405   1_455  A
C999       H1006   1.083       .  S
C1000      C1001   1.417       .  A
C1001      C1002   1.405   1_455  A
C1001      F1008   1.357       .  S
C1002      C1003   1.398       .  A
C1002      H1007   1.083       .  S
C1003      C1004   1.417       .  A
C1004      F1005   1.356       .  S
