geometry optimzed in LAMMPS
_audit_creation_date              2020-12-01 
_audit_creation_method            'lammps2cif' 
_symmetry_space_group_name_H-M    'P1' 
_symmetry_Int_Tables_number       1 
_symmetry_cell_setting            triclinic 
loop_ 
_symmetry_equiv_pos_as_xyz 
  x,y,z 
_cell_length_a                    49.11653749 
_cell_length_b                    57.53632355081614 
_cell_length_c                    36.709694485069726 
_cell_angle_alpha                 90.00770483051396 
_cell_angle_beta                  89.84282849266067 
_cell_angle_gamma                 118.10977391534759 
loop_ 
_atom_site_label 
_atom_site_type_symbol 
_atom_site_fract_x 
_atom_site_fract_y 
_atom_site_fract_z 
_atom_site_charge 
C1          C  0.17743604  0.34959043  0.20231259     0.45700
H2          H  0.17741980  0.35152099  0.23242916    -0.03300
C3          C  0.17757387  0.34566678  0.13228379     0.45800
H4          H  0.17739491  0.34297083  0.10241895    -0.03300
C5          C  0.19111958  0.33154334  0.18920380    -0.17000
C6          C  0.14448234  0.33665743  0.18598911    -0.16800
C7          C  0.19561186  0.37663189  0.18253565    -0.17100
C8          C  0.19224511  0.33060269  0.15178831    -0.17100
C9          C  0.14455014  0.33504970  0.14847882    -0.16700
C10         C  0.19690034  0.37436847  0.14514353    -0.17000
C11         C  0.32112039  0.15329521  0.20225650     0.45700
H12         H  0.32214581  0.15299287  0.23237929    -0.03300
C13         C  0.31760311  0.15504962  0.13211886     0.45800
H14         H  0.31676118  0.15617274  0.10201699    -0.03300
C15         C  0.30867706  0.12596817  0.18401843    -0.17000
C16         C  0.30032473  0.16515210  0.18911216    -0.16800
C17         C  0.35280587  0.16999110  0.18459335    -0.17100
C18         C  0.30563073  0.12671001  0.14687204    -0.17100
C19         C  0.29804683  0.16569980  0.15169090    -0.16700
C20         C  0.35074776  0.17142110  0.14725942    -0.17000
O21         O  0.46161717  0.24783921  0.03811224    -0.72700
O22         O  0.02787892  0.28440240  0.29537838    -0.73700
O23         O  0.46343373  0.25101383  0.29277312    -0.62300
O24         O  0.02574660  0.28274170  0.04012061    -0.70700
O25         O  0.03595376  0.24916606  0.04070795    -0.70300
O26         O  0.47307478  0.21711829  0.29262593    -0.61500
O27         O  0.03757080  0.25045201  0.29513963    -0.74000
O28         O  0.47136430  0.21415139  0.03736658    -0.72800
Cu29       Cu  0.49461967  0.26747361  0.00090194     1.04600
Cu30       Cu  0.50492476  0.23126351  0.00036122     1.04300
C31         C  0.45555158  0.22482886  0.04932970     0.93500
C32         C  0.04364237  0.27336211  0.28411745     0.92600
C33         C  0.45818044  0.22864982  0.28018838     0.84800
C34         C  0.04123013  0.27183192  0.05248601     0.91100
O35         O  0.21496041  0.25298041  0.29705194    -0.72700
O36         O  0.23410306  0.21400535  0.04059068    -0.73700
O37         O  0.21083462  0.25020178  0.03997096    -0.62300
O38         O  0.23915779  0.21657487  0.29761264    -0.70700
O39         O  0.28667591  0.24946784  0.30121176    -0.70300
O40         O  0.25814068  0.28358387  0.04356382    -0.61500
O41         O  0.28163000  0.24721542  0.04498376    -0.74000
O42         O  0.26227074  0.28641084  0.30052050    -0.72800
Cu43       Cu  0.22283813  0.23219854  0.00183786     1.04600
Cu44       Cu  0.27367046  0.26757821  0.00577308     1.04300
C45         C  0.23492374  0.27624209  0.28759793     0.93500
C46         C  0.26078629  0.22456423  0.05523994     0.92600
C47         C  0.22981688  0.27237786  0.05340912     0.84800
C48         C  0.26748278  0.22715268  0.28797664     0.91100
O49         O  0.22341923  0.47021661  0.03678643    -0.72700
O50         O  0.24312167  0.02538711  0.29545693    -0.73700
O51         O  0.22342116  0.47105358  0.29341710    -0.62300
O52         O  0.24422275  0.02525135  0.03866948    -0.70700
O53         O  0.29272253  0.03247400  0.03683678    -0.70300
O54         O  0.27156326  0.47745550  0.29397949    -0.61500
O55         O  0.29157104  0.03251646  0.29365026    -0.74000
O56         O  0.27174433  0.47684369  0.03687496    -0.72800
Cu57       Cu  0.23154859  0.99769174  0.99960445     1.04600
Cu58       Cu  0.28330949  0.00505397  0.99855884     1.04300
C59         C  0.24364196  0.46378634  0.04734204     0.93500
C60         C  0.27046229  0.03801255  0.28302578     0.92600
C61         C  0.24418638  0.46547581  0.28154561     0.84800
C62         C  0.27235228  0.03836420  0.04877840     0.91100
C63         C  0.31357174  0.10644088  0.09164905    -0.05500
C64         C  0.29425940  0.10357459  0.12151781     0.00400
C65         C  0.26662644  0.07919415  0.12599407    -0.08200
C66         C  0.26120477  0.05831608  0.10229703    -0.05600
C67         C  0.28132309  0.06098169  0.07366371     0.00400
C68         C  0.30785061  0.08562379  0.06771909    -0.08100
C69         C  0.33034114  0.09025098  0.03655469     0.62300
H70         H  0.33444528  0.12497145  0.08830031     0.13000
H71         H  0.24051842  0.03960335  0.10590895     0.13000
C72         C  0.24096789  0.07371910  0.15320510     0.62500
F73         F  0.35184101  0.11658961  0.03313394    -0.22600
F74         F  0.31194145  0.08288805  0.33612758    -0.20000
F75         F  0.34615350  0.07612749  0.04269880    -0.19600
F76         F  0.24496969  0.09562114  0.17226158    -0.19700
F77         F  0.23886234  0.05461475  0.17758660    -0.20000
F78         F  0.21319423  0.06437334  0.13489267    -0.22700
C79         C  0.27853538  0.09937166  0.23544900    -0.05500
C80         C  0.29887814  0.10191234  0.20687556     0.00400
C81         C  0.30890357  0.08243030  0.20282947    -0.08200
C82         C  0.29806726  0.06154502  0.22787958    -0.05600
C83         C  0.27801817  0.05933614  0.25638770     0.00400
C84         C  0.26718985  0.07811913  0.25978426    -0.08100
C85         C  0.24385067  0.07607950  0.28868385     0.62300
H86         H  0.27078050  0.11408551  0.23790245     0.13000
H87         H  0.30571844  0.04673061  0.22538117     0.13000
C88         C  0.33127369  0.08209251  0.17436394     0.62500
F89         F  0.23848344  0.09764940  0.28821347    -0.22600
F90         F  0.25853019  0.07688570  0.99141223    -0.20000
F91         F  0.21596574  0.05389405  0.28245442    -0.19600
F92         F  0.35467495  0.07935520  0.19152958    -0.19700
F93         F  0.34495800  0.10450627  0.15338173    -0.20000
F94         F  0.31577809  0.06067296  0.15166122    -0.22700
C95         C  0.39909954  0.21203206  0.20316824    -0.05500
C96         C  0.38181318  0.18451572  0.20705723     0.00400
C97         C  0.39170373  0.17199700  0.23362258    -0.08200
C98         C  0.41668849  0.18742844  0.25625598    -0.05600
C99         C  0.43316545  0.21479598  0.25310757     0.00400
C100        C  0.42484166  0.22745101  0.22537477    -0.08100
C101        C  0.44315557  0.25689922  0.21859046     0.62300
H102        H  0.39189118  0.22163822  0.18314135     0.13000
H103        H  0.42328919  0.17801469  0.27749016     0.13000
C104        C  0.37805471  0.14245927  0.23705689     0.62500
F105        F  0.43391983  0.26430026  0.18698321    -0.22600
F106        F  0.47417699  0.26408259  0.21505703    -0.20000
F107        F  0.43902640  0.27052273  0.24724016    -0.19600
F108        F  0.37625315  0.13223628  0.20293544    -0.19700
F109        F  0.34943036  0.13184627  0.25337886    -0.20000
F110        F  0.39621294  0.13505351  0.25781077    -0.22700
C111        C  0.39713230  0.17453129  0.11652552    -0.05500
C112        C  0.37776923  0.18578524  0.12274922     0.00400
C113        C  0.38397709  0.20962676  0.10494710    -0.08200
C114        C  0.41019640  0.22190472  0.08263689    -0.05600
C115        C  0.42950889  0.21056544  0.07554660     0.00400
C116        C  0.42245281  0.18597037  0.09237638    -0.08100
C117        C  0.44063980  0.17122239  0.08468288     0.62300
H118        H  0.39149911  0.15607072  0.13002526     0.13000
H119        H  0.41491797  0.24012579  0.06909690     0.13000
C120        C  0.36231403  0.22150460  0.10733550     0.62500
F121        F  0.42980929  0.14814147  0.10465526    -0.22600
F122        F  0.47131658  0.18678226  0.09368021    -0.20000
F123        F  0.44007998  0.16596703  0.38165254    -0.19600
F124        F  0.37518956  0.24669975  0.09287910    -0.19700
F125        F  0.35475673  0.22304112  0.14313699    -0.20000
F126        F  0.33609224  0.20597670  0.08763549    -0.22700
C127        C  0.25944684  0.18340921  0.07440328    -0.05800
C128        C  0.26773591  0.20953889  0.08276827     0.00400
C129        C  0.28142344  0.22003296  0.11678248    -0.08200
C130        C  0.28911516  0.20450267  0.13985794    -0.05600
C131        C  0.28250996  0.17858234  0.13063925     0.00400
C132        C  0.26535814  0.16738520  0.09823020    -0.08100
C133        C  0.25193579  0.13874023  0.08742925     0.62300
H134        H  0.24797795  0.17529039  0.04873545     0.13000
H135        H  0.30216778  0.21339009  0.16416424     0.13000
C136        C  0.28787153  0.24738985  0.12874929     0.62500
F137        F  0.25076887  0.12325857  0.11624586    -0.22600
F138        F  0.26926443  0.13606763  0.05957025    -0.20000
F139        F  0.22189395  0.12951978  0.07544044    -0.19600
F140        F  0.26154530  0.25016510  0.12475250    -0.19700
F141        F  0.31139013  0.26615621  0.10784076    -0.20000
F142        F  0.29664588  0.25197383  0.16496537    -0.22700
C143        C  0.25425543  0.19355136  0.23973247    -0.05500
C144        C  0.27730528  0.21263868  0.26183510     0.00400
C145        C  0.30758048  0.21530237  0.26043826    -0.08200
C146        C  0.31331912  0.19880495  0.23684293    -0.05600
C147        C  0.29010899  0.17946183  0.21525408     0.00400
C148        C  0.25970900  0.17636113  0.21742296    -0.08100
C149        C  0.23195810  0.15528470  0.19776389     0.62300
H150        H  0.23111610  0.19141490  0.24060633     0.13000
H151        H  0.33650348  0.20131133  0.23451053     0.13000
C152        C  0.33384335  0.23501140  0.28378047     0.62500
F153        F  0.23783560  0.13633375  0.18236727    -0.22600
F154        F  0.22272350  0.16684177  0.17081741    -0.20000
F155        F  0.20782882  0.14271461  0.22214772    -0.19600
F156        F  0.32566698  0.23069042  0.32020546    -0.19700
F157        F  0.34044278  0.26037152  0.27418640    -0.20000
F158        F  0.36062492  0.23291689  0.27933128    -0.22700
C159        C  0.08099726  0.31441312  0.07597500    -0.05500
C160        C  0.06647010  0.28688401  0.07889817     0.00400
C161        C  0.07590847  0.27532834  0.10688520    -0.08200
C162        C  0.10022492  0.29195803  0.13006277    -0.05600
C163        C  0.11626120  0.31950546  0.12556190     0.00400
C164        C  0.10534410  0.33095300  0.09869959    -0.08100
C165        C  0.11615945  0.36013750  0.09365383     0.62300
H166        H  0.07326236  0.32340402  0.05525893     0.13000
H167        H  0.10690764  0.28335204  0.15189970     0.13000
C168        C  0.06047478  0.24572700  0.11258043     0.62500
F169        F  0.09180725  0.36529558  0.10056156    -0.22600
F170        F  0.12533649  0.36708578  0.05803593    -0.20000
F171        F  0.14004612  0.37573403  0.11630489    -0.19600
F172        F  0.06794191  0.23408036  0.08401264    -0.19700
F173        F  0.02879252  0.23574299  0.11433756    -0.20000
F174        F  0.06988845  0.23901061  0.14460755    -0.22700
C175        C  0.12125135  0.30427632  0.23591100    -0.05500
C176        C  0.11707958  0.32040989  0.21002001     0.00400
C177        C  0.08771150  0.31984413  0.20872116    -0.08200
C178        C  0.06403413  0.30253870  0.23158750    -0.05600
C179        C  0.06889281  0.28749734  0.25798692     0.00400
C180        C  0.09808832  0.28838961  0.26064454    -0.08100
C181        C  0.10538536  0.27357800  0.29009412     0.62300
H182        H  0.14310685  0.30419961  0.23706126     0.13000
H183        H  0.04155650  0.30178856  0.23005364     0.13000
C184        C  0.07952347  0.33767014  0.18654875     0.62500
F185        F  0.13640356  0.28021083  0.29052352    -0.22600
F186        F  0.08867660  0.24675706  0.28410644    -0.20000
F187        F  0.09797154  0.27956225  0.32398401    -0.19600
F188        F  0.05705299  0.32294905  0.16138755    -0.19700
F189        F  0.10433407  0.35654070  0.16881863    -0.20000
F190        F  0.06824484  0.35038166  0.20928744    -0.22700
C191        C  0.24018853  0.30175858  0.10633884    -0.05500
C192        C  0.21905634  0.28548688  0.08014979     0.00400
C193        C  0.18921888  0.28357387  0.07872549    -0.08200
C194        C  0.18186710  0.29807942  0.10380347    -0.05600
C195        C  0.20308418  0.31482118  0.12965026     0.00400
C196        C  0.23317493  0.31699963  0.13070780    -0.08100
C197        C  0.25955106  0.33542046  0.15488722     0.62300
H198        H  0.26301597  0.30320050  0.10713483     0.13000
H199        H  0.15901292  0.29645843  0.10335928     0.13000
C200        C  0.16529617  0.26712256  0.05038779     0.62500
F201        F  0.26794289  0.32070211  0.17760968    -0.22600
F202        F  0.25261763  0.35155228  0.17602655    -0.20000
F203        F  0.28464624  0.35141007  0.13337784    -0.19600
F204        F  0.15552007  0.24065570  0.05659181    -0.19700
F205        F  0.17686941  0.27262343  0.34943835    -0.20000
F206        F  0.13951301  0.27096992  0.05156844    -0.22700
C207        C  0.20464990  0.27716052  0.23457301    -0.05500
C208        C  0.22543483  0.29129466  0.26219975     0.00400
C209        C  0.23296546  0.31806147  0.26769389    -0.08200
C210        C  0.22040013  0.32987366  0.24400170    -0.05600
C211        C  0.20052149  0.31606095  0.21515557     0.00400
C212        C  0.19092638  0.28852467  0.21222627    -0.08100
C213        C  0.16455331  0.26922015  0.18906480     0.62300
H214        H  0.19776755  0.25637101  0.23150358     0.13000
H215        H  0.22643019  0.35018651  0.24769997     0.13000
C216        C  0.25348327  0.33402606  0.29892552     0.62500
F217        F  0.14367729  0.24897015  0.21081779    -0.22600
F218        F  0.17572369  0.25863378  0.16280694    -0.20000
F219        F  0.14874050  0.28052478  0.17260321    -0.19600
F220        F  0.24203210  0.32085442  0.99830130    -0.19700
F221        F  0.25517343  0.35852431  0.96858957    -0.20000
F222        F  0.28318648  0.33789438  0.29337732    -0.22700
C223        C  0.19887601  0.39451321  0.08443133    -0.05500
C224        C  0.21376979  0.39630380  0.11780508     0.00400
C225        C  0.24294509  0.41900736  0.12317578    -0.08200
C226        C  0.25141077  0.44111276  0.10056573    -0.05600
C227        C  0.23376964  0.44012354  0.07023270     0.00400
C228        C  0.20828597  0.41583544  0.06046732    -0.08100
C229        C  0.19098682  0.41204565  0.02480532     0.62300
H230        H  0.17873565  0.37660348  0.07726724     0.13000
H231        H  0.27269279  0.45900152  0.10584240     0.13000
C232        C  0.26793933  0.42006831  0.14794686     0.62500
F233        F  0.17252869  0.42418768  0.02665273    -0.22600
F234        F  0.17082915  0.38487349  0.34999827    -0.20000
F235        F  0.21153919  0.42258392  0.99644292    -0.19600
F236        F  0.25979277  0.39627927  0.16435297    -0.19700
F237        F  0.27485646  0.43931551  0.17409154    -0.20000
F238        F  0.29427626  0.42639310  0.12757371    -0.22700
C239        C  0.23328920  0.40454418  0.22910656    -0.05500
C240        C  0.21037261  0.40179140  0.20408353     0.00400
C241        C  0.20060907  0.42149967  0.20328336    -0.08200
C242        C  0.21349188  0.44243440  0.22813213    -0.05600
C243        C  0.23571365  0.44467540  0.25356052     0.00400
C244        C  0.24690097  0.42601213  0.25323793    -0.08100
C245        C  0.27288553  0.42840278  0.27798866     0.62300
H246        H  0.24114112  0.39001997  0.22885070     0.13000
H247        H  0.20584936  0.45727567  0.22837453     0.13000
C248        C  0.17510556  0.41991403  0.17885514     0.62500
F249        F  0.27956174  0.40777868  0.27317141    -0.22600
F250        F  0.26495052  0.42848448  0.31411756    -0.20000
F251        F  0.29944747  0.45145665  0.27019684    -0.19600
F252        F  0.14986056  0.39585529  0.18375079    -0.19700
F253        F  0.18432099  0.42329199  0.14296226    -0.20000
F254        F  0.16622998  0.43889180  0.18695376    -0.22700
C255        C  0.17609563  0.34863942  0.53537137     0.45700
H256        H  0.17604334  0.35060525  0.56547916    -0.03300
C257        C  0.17634612  0.34467335  0.46536254     0.45800
H258        H  0.17623227  0.34198099  0.43549321    -0.03300
C259        C  0.18967192  0.33050011  0.52236017    -0.17000
C260        C  0.14316055  0.33572408  0.51899657    -0.16800
C261        C  0.19439651  0.37567153  0.51559962    -0.17100
C262        C  0.19091537  0.32956477  0.48497867    -0.17100
C263        C  0.14331062  0.33419647  0.48145920    -0.16700
C264        C  0.19569033  0.37335942  0.47820436    -0.17000
C265        C  0.32221240  0.15331119  0.53548828     0.45700
H266        H  0.32432749  0.15284141  0.56557966    -0.03300
C267        C  0.31740066  0.15491041  0.46544194     0.45800
H268        H  0.31612888  0.15598722  0.43539927    -0.03300
C269        C  0.30899490  0.12592277  0.51740646    -0.17000
C270        C  0.30110973  0.16517391  0.52315170    -0.16800
C271        C  0.35351970  0.16980128  0.51670476    -0.17100
C272        C  0.30556234  0.12658111  0.48029198    -0.17100
C273        C  0.29828809  0.16571630  0.48572004    -0.16700
C274        C  0.35077625  0.17128859  0.47960320    -0.17000
O275        O  0.46090489  0.24896226  0.36997870    -0.72700
O276        O  0.02805707  0.28460998  0.63058454    -0.73700
O277        O  0.46252107  0.25113901  0.62737828    -0.62300
O278        O  0.02521935  0.28291560  0.37177695    -0.70700
O279        O  0.03558490  0.24943996  0.37187026    -0.70300
O280        O  0.47221846  0.21739856  0.62630537    -0.61500
O281        O  0.03758402  0.25056820  0.63041629    -0.74000
O282        O  0.47101564  0.21547535  0.36954760    -0.72800
Cu283      Cu  0.49409319  0.26848159  0.33282014     1.04600
Cu284      Cu  0.50458839  0.23235822  0.33280150     1.04300
C285        C  0.45509918  0.22606214  0.38141424     0.93500
C286        C  0.04355925  0.27338369  0.61910902     0.92600
C287        C  0.45719803  0.22892855  0.61421112     0.84800
C288        C  0.04073200  0.27197998  0.38399872     0.91100
O289        O  0.21396965  0.25247727  0.63062799    -0.72700
O290        O  0.23497643  0.21422450  0.37409984    -0.73700
O291        O  0.21097065  0.24984945  0.37336515    -0.62300
O292        O  0.23801890  0.21581995  0.63136261    -0.70700
O293        O  0.28554019  0.24883013  0.63399842    -0.70300
O294        O  0.25803364  0.28353448  0.37725665    -0.61500
O295        O  0.28230924  0.24763894  0.37881498    -0.74000
O296        O  0.26134874  0.28591420  0.63319338    -0.72800
Cu297      Cu  0.22347834  0.23229545  0.33528015     1.04600
Cu298      Cu  0.27408831  0.26794286  0.33944841     1.04300
C299        C  0.23384616  0.27566071  0.62077308     0.93500
C300        C  0.26156239  0.22490535  0.38901382     0.92600
C301        C  0.22966789  0.27203755  0.38696004     0.84800
C302        C  0.26631128  0.22624885  0.62156738     0.91100
O303        O  0.22205134  0.46923401  0.36973592    -0.72700
O304        O  0.24279530  0.02536923  0.62869097    -0.73700
O305        O  0.22226086  0.47032451  0.62651232    -0.62300
O306        O  0.24429759  0.02521725  0.37165200    -0.70700
O307        O  0.29287708  0.03260794  0.37012658    -0.70300
O308        O  0.27053075  0.47704188  0.62631139    -0.61500
O309        O  0.29106095  0.03202153  0.62698673    -0.74000
O310        O  0.27046337  0.47611245  0.37066820    -0.72800
Cu311      Cu  0.23181023  0.99750206  0.33278525     1.04600
Cu312      Cu  0.28367097  0.00513103  0.33200523     1.04300
C313        C  0.24225264  0.46286426  0.38062201     0.93500
C314        C  0.27018101  0.03780248  0.61634593     0.92600
C315        C  0.24301591  0.46481410  0.61436080     0.84800
C316        C  0.27239484  0.03843389  0.38184411     0.91100
C317        C  0.31340758  0.10645888  0.42485835    -0.05500
C318        C  0.29426734  0.10342054  0.45497924     0.00400
C319        C  0.26673802  0.07895575  0.45946797    -0.08200
C320        C  0.26138706  0.05812943  0.43571126    -0.05600
C321        C  0.28122517  0.06104094  0.40667819     0.00400
C322        C  0.30735450  0.08586641  0.40037711    -0.08100
C323        C  0.32878644  0.09101896  0.36791970     0.62300
H324        H  0.33417802  0.12504937  0.42137525     0.13000
H325        H  0.24087830  0.03930855  0.43946601     0.13000
C326        C  0.24100574  0.07334807  0.48658181     0.62500
F327        F  0.34942311  0.11754976  0.36404299    -0.22600
F328        F  0.31414083  0.08272192  0.67015161    -0.20000
F329        F  0.34557635  0.07755486  0.37234679    -0.19600
F330        F  0.24509474  0.09508976  0.50604549    -0.19700
F331        F  0.23861184  0.05395665  0.51060843    -0.20000
F332        F  0.21336164  0.06434505  0.46806903    -0.22700
C333        C  0.27898973  0.09959873  0.56926870    -0.05500
C334        C  0.29894732  0.10188138  0.54040884     0.00400
C335        C  0.30880286  0.08233088  0.53630409    -0.08200
C336        C  0.29774912  0.06128081  0.56108413    -0.05600
C337        C  0.27799463  0.05925895  0.58985081     0.00400
C338        C  0.26777596  0.07842823  0.59376351    -0.08100
C339        C  0.24545792  0.07701805  0.62362829     0.62300
H340        H  0.27156861  0.11451501  0.57193777     0.13000
H341        H  0.30524478  0.04637927  0.55838626     0.13000
C342        C  0.33195893  0.08272456  0.50852013     0.62500
F343        F  0.24083129  0.09897533  0.62370085    -0.22600
F344        F  0.25439524  0.07458635  0.32300596    -0.20000
F345        F  0.21707515  0.05516306  0.61838291    -0.19600
F346        F  0.35532298  0.08031336  0.52630447    -0.19700
F347        F  0.34552101  0.10546915  0.48828592    -0.20000
F348        F  0.31738495  0.06158110  0.48512781    -0.22700
C349        C  0.39362089  0.21225656  0.54228109    -0.05500
C350        C  0.38276057  0.18507179  0.53815959     0.00400
C351        C  0.39809219  0.17316133  0.55739936    -0.08200
C352        C  0.42271679  0.18865374  0.58051465    -0.05600
C353        C  0.43264890  0.21553124  0.58608397     0.00400
C354        C  0.41817650  0.22783710  0.56589187    -0.08100
C355        C  0.42797655  0.25706897  0.56899806     0.62300
H356        H  0.38159386  0.22107843  0.52817614     0.13000
H357        H  0.43396491  0.17942219  0.59552172     0.13000
C358        C  0.38920806  0.14431450  0.55395047     0.62500
F359        F  0.41266898  0.26495096  0.54429207    -0.22600
F360        F  0.45927735  0.27164414  0.56213079    -0.20000
F361        F  0.42138965  0.26269910  0.60351319    -0.19600
F362        F  0.39272563  0.13891191  0.51829690    -0.19700
F363        F  0.35926845  0.12933866  0.56537952    -0.20000
F364        F  0.40739930  0.13711338  0.57498325    -0.22700
C365        C  0.39683540  0.17496421  0.44756912    -0.05500
C366        C  0.37744126  0.18602716  0.45466646     0.00400
C367        C  0.38351520  0.21007760  0.43756331    -0.08200
C368        C  0.40961490  0.22265908  0.41506674    -0.05600
C369        C  0.42924404  0.21167165  0.40773674     0.00400
C370        C  0.42265454  0.18714074  0.42438128    -0.08100
C371        C  0.44205957  0.17330533  0.41784086     0.62300
H372        H  0.39081077  0.15601060  0.45948018     0.13000
H373        H  0.41408455  0.24088455  0.40171697     0.13000
C374        C  0.36167655  0.22171531  0.44050396     0.62500
F375        F  0.43219641  0.15069779  0.43868599    -0.22600
F376        F  0.47247391  0.18987169  0.42694694    -0.20000
F377        F  0.44112822  0.16588727  0.71867997    -0.19600
F378        F  0.37429161  0.24701481  0.42644886    -0.19700
F379        F  0.35425401  0.22291390  0.47641306    -0.20000
F380        F  0.33542370  0.20618659  0.42085895    -0.22700
C381        C  0.26028436  0.18374455  0.40824643    -0.05800
C382        C  0.26843668  0.20984069  0.41671601     0.00400
C383        C  0.28149995  0.22007290  0.45112545    -0.08200
C384        C  0.28885069  0.20437925  0.47441561    -0.05600
C385        C  0.28248440  0.17854691  0.46498937     0.00400
C386        C  0.26573432  0.16754825  0.43227398    -0.08100
C387        C  0.25227639  0.13890716  0.42135485     0.62300
H388        H  0.24918919  0.17575126  0.38236013     0.13000
H389        H  0.30147849  0.21305696  0.49906533     0.13000
C390        C  0.28739165  0.24722378  0.46338572     0.62500
F391        F  0.25057047  0.12327566  0.45025640    -0.22600
F392        F  0.26988451  0.13618042  0.39388505    -0.20000
F393        F  0.22244494  0.12988613  0.40874683    -0.19600
F394        F  0.26063689  0.24939305  0.45989640    -0.19700
F395        F  0.31043910  0.26633140  0.44235197    -0.20000
F396        F  0.29647955  0.25187009  0.49949926    -0.22700
C397        C  0.25359405  0.19220153  0.57396690    -0.05500
C398        C  0.27627656  0.21134343  0.59630890     0.00400
C399        C  0.30643028  0.21371142  0.59618121    -0.08200
C400        C  0.31271807  0.19747797  0.57267221    -0.05600
C401        C  0.29015341  0.17864582  0.54993191     0.00400
C402        C  0.25957578  0.17523110  0.55178334    -0.08100
C403        C  0.23207006  0.15386794  0.53221099     0.62300
H404        H  0.23038091  0.18991596  0.57444494     0.13000
H405        H  0.33584873  0.19985070  0.57131105     0.13000
C406        C  0.33197630  0.23281580  0.62087787     0.62500
F407        F  0.23865275  0.13554810  0.51616421    -0.22600
F408        F  0.22195756  0.16514154  0.50581505    -0.20000
F409        F  0.20834476  0.14061803  0.55686645    -0.19600
F410        F  0.32220487  0.22847423  0.65679073    -0.19700
F411        F  0.33994608  0.25844400  0.61108701    -0.20000
F412        F  0.35829589  0.22984214  0.61846464    -0.22700
C413        C  0.07976330  0.31434596  0.40906347    -0.05500
C414        C  0.06576766  0.28678063  0.41079584     0.00400
C415        C  0.07567404  0.27491027  0.43789076    -0.08200
C416        C  0.09960305  0.29129809  0.46166581    -0.05600
C417        C  0.11512224  0.31891160  0.45831743     0.00400
C418        C  0.10406064  0.33064505  0.43202420    -0.08100
C419        C  0.11485193  0.35987769  0.42764972     0.62300
H420        H  0.07180391  0.32356662  0.38894228     0.13000
H421        H  0.10653733  0.28245636  0.48293314     0.13000
C422        C  0.06127358  0.24521764  0.44193243     0.62500
F423        F  0.09056263  0.36499946  0.43517132    -0.22600
F424        F  0.12387329  0.36721131  0.39208291    -0.20000
F425        F  0.13887918  0.37519569  0.45027541    -0.19600
F426        F  0.06917940  0.23481130  0.41225179    -0.19700
F427        F  0.02951514  0.23440086  0.44413491    -0.20000
F428        F  0.07133492  0.23800608  0.47303853    -0.22700
C429        C  0.12026481  0.30340364  0.56907758    -0.05500
C430        C  0.11582201  0.31934823  0.54309740     0.00400
C431        C  0.08643853  0.31877137  0.54220222    -0.08200
C432        C  0.06305845  0.30171364  0.56561879    -0.05600
C433        C  0.06834969  0.28711497  0.59231988     0.00400
C434        C  0.09752344  0.28794591  0.59449089    -0.08100
C435        C  0.10528339  0.27360177  0.62419887     0.62300
H436        H  0.14207000  0.30325211  0.56992544     0.13000
H437        H  0.04054993  0.30092568  0.56439435     0.13000
C438        C  0.07803847  0.33645606  0.52004363     0.62500
F439        F  0.13628766  0.28017959  0.62403527    -0.22600
F440        F  0.08842415  0.24668709  0.61913434    -0.20000
F441        F  0.09847799  0.28019190  0.65802764    -0.19600
F442        F  0.05568826  0.32164601  0.49481550    -0.19700
F443        F  0.10281806  0.35546751  0.50245925    -0.20000
F444        F  0.06653370  0.34901357  0.54274831    -0.22700
C445        C  0.23942813  0.30108918  0.44005686    -0.05500
C446        C  0.21851300  0.28480660  0.41372944     0.00400
C447        C  0.18850147  0.28253293  0.41225303    -0.08200
C448        C  0.18093686  0.29704445  0.43709531    -0.05600
C449        C  0.20198759  0.31387960  0.46300444     0.00400
C450        C  0.23212141  0.31614886  0.46439265    -0.08100
C451        C  0.25827611  0.33444706  0.48893006     0.62300
H452        H  0.26231900  0.30266839  0.44101055     0.13000
H453        H  0.15804695  0.29533637  0.43645073     0.13000
C454        C  0.16460520  0.26566172  0.38413532     0.62500
F455        F  0.26641603  0.31960036  0.51173267    -0.22600
F456        F  0.25119180  0.35050754  0.51000107    -0.20000
F457        F  0.28358799  0.35051061  0.46777174    -0.19600
F458        F  0.15562829  0.23932698  0.39035821    -0.19700
F459        F  0.17790547  0.27394105  0.68265919    -0.20000
F460        F  0.13834047  0.26879000  0.38563358    -0.22700
C461        C  0.20345301  0.27630761  0.56782539    -0.05500
C462        C  0.22411718  0.29053959  0.59547186     0.00400
C463        C  0.23137685  0.31723546  0.60103760    -0.08200
C464        C  0.21867995  0.32890415  0.57734211    -0.05600
C465        C  0.19900887  0.31504233  0.54838971     0.00400
C466        C  0.18964337  0.28753795  0.54541023    -0.08100
C467        C  0.16348518  0.26812796  0.52209320     0.62300
H468        H  0.19678675  0.25555479  0.56474893     0.13000
H469        H  0.22452130  0.34921966  0.58105488     0.13000
C470        C  0.25175261  0.33326575  0.63232116     0.62500
F471        F  0.14267751  0.24772316  0.54369516    -0.22600
F472        F  0.17496744  0.25776106  0.49588414    -0.20000
F473        F  0.14751144  0.27926642  0.50559428    -0.19600
F474        F  0.24216531  0.32090123  0.33152733    -0.19700
F475        F  0.25476561  0.35848284  0.30189439    -0.20000
F476        F  0.28149864  0.33718470  0.62701292    -0.22700
C477        C  0.19739406  0.39351522  0.41758404    -0.05500
C478        C  0.21247192  0.39524318  0.45080687     0.00400
C479        C  0.24172828  0.41785183  0.45602577    -0.08200
C480        C  0.25017060  0.43998038  0.43348265    -0.05600
C481        C  0.23234286  0.43912197  0.40338594     0.00400
C482        C  0.20673962  0.41488153  0.39368792    -0.08100
C483        C  0.18915258  0.41120334  0.35826854     0.62300
H484        H  0.17712704  0.37564165  0.41056543     0.13000
H485        H  0.27154860  0.45780367  0.43866413     0.13000
C486        C  0.26675838  0.41877864  0.48061580     0.62500
F487        F  0.17057418  0.42320541  0.36076712    -0.22600
F488        F  0.17138849  0.38503279  0.68411059    -0.20000
F489        F  0.20943515  0.42196589  0.32967334    -0.19600
F490        F  0.25846163  0.39500884  0.49714552    -0.19700
F491        F  0.27400644  0.43812201  0.50668879    -0.20000
F492        F  0.29292457  0.42483923  0.46003882    -0.22700
C493        C  0.23218597  0.40375540  0.56210387    -0.05500
C494        C  0.20916478  0.40087002  0.53713979     0.00400
C495        C  0.19926129  0.42049503  0.53641377    -0.08200
C496        C  0.21206303  0.44144157  0.56125595    -0.05600
C497        C  0.23442512  0.44384900  0.58656098     0.00400
C498        C  0.24579153  0.42529587  0.58616090    -0.08100
C499        C  0.27204864  0.42795530  0.61064622     0.62300
H500        H  0.24014187  0.38925991  0.56185944     0.13000
H501        H  0.20427982  0.45619373  0.56155555     0.13000
C502        C  0.17368670  0.41879847  0.51204976     0.62500
F503        F  0.27875827  0.40733483  0.60599039    -0.22600
F504        F  0.26450827  0.42832922  0.64685458    -0.20000
F505        F  0.29847172  0.45098989  0.60235191    -0.19600
F506        F  0.14842283  0.39480365  0.51734482    -0.19700
F507        F  0.18275797  0.42190361  0.47611953    -0.20000
F508        F  0.16493156  0.43789065  0.51985830    -0.22700
C509        C  0.17749671  0.34944029  0.86950900     0.45700
H510        H  0.17758809  0.35132059  0.89963755    -0.03300
C511        C  0.17746832  0.34563593  0.79946721     0.45800
H512        H  0.17719449  0.34296671  0.76959415    -0.03300
C513        C  0.19144191  0.33165929  0.85610604    -0.17000
C514        C  0.14447240  0.33618728  0.85342981    -0.16800
C515        C  0.19531676  0.37656235  0.84972595    -0.17100
C516        C  0.19252898  0.33081444  0.81869779    -0.17100
C517        C  0.14447892  0.33475186  0.81588439    -0.16700
C518        C  0.19657009  0.37433131  0.81231914    -0.17000
C519        C  0.32144346  0.15327681  0.86922850     0.45700
H520        H  0.32245115  0.15272592  0.89940175    -0.03300
C521        C  0.31871216  0.15542971  0.79901658     0.45800
H522        H  0.31841300  0.15687645  0.76891765    -0.03300
C523        C  0.30903045  0.12604228  0.85075084    -0.17000
C524        C  0.30072784  0.16520872  0.85577763    -0.16800
C525        C  0.35328603  0.17000977  0.85200301    -0.17100
C526        C  0.30641726  0.12695028  0.81353520    -0.17100
C527        C  0.29897098  0.16604264  0.81824911    -0.16700
C528        C  0.35161541  0.17168333  0.81478100    -0.17000
O529        O  0.46075949  0.24876077  0.70450207    -0.72700
O530        O  0.02843639  0.28390124  0.96367943    -0.73700
O531        O  0.46378503  0.25040292  0.96124633    -0.62300
O532        O  0.02597028  0.28340816  0.70708435    -0.70700
O533        O  0.03615866  0.24982101  0.70720000    -0.70300
O534        O  0.47320001  0.21643574  0.96030624    -0.61500
O535        O  0.03810075  0.24994213  0.96385193    -0.74000
O536        O  0.47070151  0.21517316  0.70337843    -0.72800
Cu537      Cu  0.49349975  0.26849458  0.66702359     1.04600
Cu538      Cu  0.50397864  0.23239758  0.66626074     1.04300
C539        C  0.45503289  0.22584101  0.71577391     0.93500
C540        C  0.04414932  0.27278183  0.95250244     0.92600
C541        C  0.45831128  0.22810791  0.94829483     0.84800
C542        C  0.04145497  0.27242832  0.71921832     0.91100
O543        O  0.21466440  0.25301994  0.96363352    -0.72700
O544        O  0.23478242  0.21444452  0.70775463    -0.73700
O545        O  0.21106754  0.25035066  0.70703723    -0.62300
O546        O  0.23808147  0.21601215  0.96413646    -0.70700
O547        O  0.28571784  0.24872386  0.96766234    -0.70300
O548        O  0.25830034  0.28391654  0.70988605    -0.61500
O549        O  0.28226805  0.24782814  0.71129766    -0.74000
O550        O  0.26219986  0.28616913  0.96693910    -0.72800
Cu551      Cu  0.22287982  0.23216063  0.66897517     1.04600
Cu552      Cu  0.27360513  0.26779541  0.67203897     1.04300
C553        C  0.23485556  0.27618375  0.95412052     0.93500
C554        C  0.26165410  0.22517542  0.72190414     0.92600
C555        C  0.23007215  0.27266621  0.72008949     0.84800
C556        C  0.26642914  0.22638345  0.95460496     0.91100
O557        O  0.22201250  0.46942426  0.70298877    -0.72700
O558        O  0.24301636  0.02580045  0.96255216    -0.73700
O559        O  0.22393247  0.47138376  0.96043032    -0.62300
O560        O  0.24400728  0.02542473  0.70496445    -0.70700
O561        O  0.29230149  0.03212507  0.70355046    -0.70300
O562        O  0.27209912  0.47783251  0.96014364    -0.61500
O563        O  0.29131400  0.03252195  0.96042578    -0.74000
O564        O  0.27048441  0.47643380  0.70310130    -0.72800
Cu565      Cu  0.23104562  0.99751930  0.66612899     1.04600
Cu566      Cu  0.28265587  0.00453351  0.66543889     1.04300
C567        C  0.24244041  0.46327903  0.71370257     0.93500
C568        C  0.27036586  0.03829538  0.95009450     0.92600
C569        C  0.24457721  0.46577010  0.94819408     0.84800
C570        C  0.27213176  0.03833735  0.71524291     0.91100
C571        C  0.31407379  0.10648406  0.75815428    -0.05500
C572        C  0.29487497  0.10378895  0.78808370     0.00400
C573        C  0.26710915  0.07949345  0.79257970    -0.08200
C574        C  0.26145874  0.05852459  0.76892502    -0.05600
C575        C  0.28136552  0.06104452  0.74012789     0.00400
C576        C  0.30801807  0.08560840  0.73412575    -0.08100
C577        C  0.33013853  0.09011822  0.70259437     0.62300
H578        H  0.33502851  0.12494407  0.75473826     0.13000
H579        H  0.24069649  0.03988075  0.77262490     0.13000
C580        C  0.24147123  0.07425565  0.81970832     0.62500
F581        F  0.35202303  0.11635480  0.69936652    -0.22600
F582        F  0.31472333  0.08244181  0.00391493    -0.20000
F583        F  0.34554248  0.07556522  0.70795939    -0.19600
F584        F  0.24556257  0.09632501  0.83840140    -0.19700
F585        F  0.23927908  0.05527946  0.84437902    -0.20000
F586        F  0.21370566  0.06485778  0.80137081    -0.22700
C587        C  0.27888888  0.09976844  0.90245501    -0.05500
C588        C  0.29880455  0.10191402  0.87355904     0.00400
C589        C  0.30863085  0.08230740  0.86964478    -0.08200
C590        C  0.29759942  0.06143544  0.89468477    -0.05600
C591        C  0.27809484  0.05967745  0.92357952     0.00400
C592        C  0.26805025  0.07893803  0.92746119    -0.08100
C593        C  0.24647599  0.07807568  0.95793001     0.62300
H594        H  0.27136998  0.11463104  0.90494240     0.13000
H595        H  0.30488638  0.04639468  0.89204879     0.13000
C596        C  0.33122512  0.08196766  0.84156386     0.62500
F597        F  0.24209792  0.10016290  0.95790204    -0.22600
F598        F  0.25680566  0.07545693  0.65742080    -0.20000
F599        F  0.21788822  0.05627430  0.95373432    -0.19600
F600        F  0.35460700  0.07946457  0.85916811    -0.19700
F601        F  0.34487031  0.10426997  0.82043837    -0.20000
F602        F  0.31598931  0.06044308  0.81895724    -0.22700
C603        C  0.39695709  0.21233863  0.87417325    -0.05500
C604        C  0.38211936  0.18465207  0.87459447     0.00400
C605        C  0.39415971  0.17192122  0.89788796    -0.08200
C606        C  0.41927886  0.18714162  0.92046129    -0.05600
C607        C  0.43330271  0.21463990  0.92099230     0.00400
C608        C  0.42234185  0.22768943  0.89683678    -0.08100
C609        C  0.43701084  0.25753949  0.89463614     0.62300
H610        H  0.38787830  0.22205707  0.85683537     0.13000
H611        H  0.42775405  0.17738268  0.93895005     0.13000
C612        C  0.38197119  0.14248524  0.89834151     0.62500
F613        F  0.42553639  0.26576465  0.86577783    -0.22600
F614        F  0.46856791  0.26812999  0.88974831    -0.20000
F615        F  0.43099579  0.26735699  0.92628782    -0.19600
F616        F  0.38241978  0.13433066  0.86334005    -0.19700
F617        F  0.35260145  0.13029896  0.91262587    -0.20000
F618        F  0.39978501  0.13480398  0.91926224    -0.22700
C619        C  0.39849226  0.17584452  0.78449589    -0.05500
C620        C  0.37883089  0.18674751  0.79100859     0.00400
C621        C  0.38486787  0.21078805  0.77395726    -0.08200
C622        C  0.40997687  0.22262122  0.74998467    -0.05600
C623        C  0.42962337  0.21165657  0.74267277     0.00400
C624        C  0.42384331  0.18769808  0.76052434    -0.08100
C625        C  0.44362586  0.17416724  0.75446899     0.62300
H626        H  0.39318693  0.15739345  0.79778480     0.13000
H627        H  0.41380432  0.24046831  0.73596091     0.13000
C628        C  0.36432745  0.22361950  0.77850469     0.62500
F629        F  0.43461779  0.15220313  0.77647814    -0.22600
F630        F  0.47408377  0.19134130  0.76248107    -0.20000
F631        F  0.43810455  0.16445434  0.04820448    -0.19600
F632        F  0.38042523  0.25046852  0.77189697    -0.19700
F633        F  0.35289165  0.22046171  0.81343363    -0.20000
F634        F  0.34028311  0.21251160  0.75400683    -0.22700
C635        C  0.26183474  0.18444525  0.73992328    -0.05800
C636        C  0.26907319  0.21022867  0.74907466     0.00400
C637        C  0.28183720  0.22030513  0.78358568    -0.08200
C638        C  0.28940060  0.20466457  0.80663240    -0.05600
C639        C  0.28378128  0.17908690  0.79675497     0.00400
C640        C  0.26761899  0.16828032  0.76363181    -0.08100
C641        C  0.25474818  0.13979140  0.75215362     0.62300
H642        H  0.25107497  0.17665304  0.71381424     0.13000
H643        H  0.30144812  0.21321041  0.83160965     0.13000
C644        C  0.28723585  0.24726758  0.79615183     0.62500
F645        F  0.25246922  0.12390127  0.78096341    -0.22600
F646        F  0.27317130  0.13757492  0.72527409    -0.20000
F647        F  0.22519789  0.13064269  0.73851552    -0.19600
F648        F  0.26017310  0.24898689  0.79306646    -0.19700
F649        F  0.30991643  0.26663769  0.77503929    -0.20000
F650        F  0.29655993  0.25194439  0.83218142    -0.22700
C651        C  0.25355617  0.19269336  0.90638627    -0.05500
C652        C  0.27633782  0.21170649  0.92883113     0.00400
C653        C  0.30661085  0.21433475  0.92799275    -0.08200
C654        C  0.31273540  0.19814872  0.90425332    -0.05600
C655        C  0.28993901  0.17912252  0.88192693     0.00400
C656        C  0.25943969  0.17588302  0.88371923    -0.08100
C657        C  0.23197604  0.15509342  0.86330666     0.62300
H658        H  0.23036082  0.19044131  0.90705898     0.13000
H659        H  0.33594625  0.20068793  0.90238266     0.13000
C660        C  0.33247774  0.23363727  0.95218220     0.62500
F661        F  0.23841729  0.13708409  0.84600162    -0.22600
F662        F  0.22217729  0.16716828  0.83772647    -0.20000
F663        F  0.20805815  0.14133134  0.88751919    -0.19600
F664        F  0.32346807  0.22899758  0.98834026    -0.19700
F665        F  0.33965270  0.25917804  0.94287621    -0.20000
F666        F  0.35914759  0.23127450  0.94854437    -0.22700
C667        C  0.08103791  0.31480821  0.74347362    -0.05500
C668        C  0.06662997  0.28725682  0.74578207     0.00400
C669        C  0.07604824  0.27542844  0.77343089    -0.08200
C670        C  0.10032167  0.29182508  0.79680576    -0.05600
C671        C  0.11622660  0.31941066  0.79290488     0.00400
C672        C  0.10527936  0.33112288  0.76646403    -0.08100
C673        C  0.11588225  0.36034007  0.76228199     0.62300
H674        H  0.07326618  0.32399450  0.72308464     0.13000
H675        H  0.10705989  0.28301252  0.81833372     0.13000
C676        C  0.06056520  0.24578023  0.77864256     0.62500
F677        F  0.09146882  0.36526105  0.76995206    -0.22600
F678        F  0.12485264  0.36783497  0.72674807    -0.20000
F679        F  0.13984582  0.37568542  0.78497011    -0.19600
F680        F  0.06799571  0.23433839  0.74978853    -0.19700
F681        F  0.02889163  0.23584158  0.78046010    -0.20000
F682        F  0.06994189  0.23877264  0.81045751    -0.22700
C683        C  0.12163810  0.30381075  0.90367425    -0.05500
C684        C  0.11717910  0.31971325  0.87762136     0.00400
C685        C  0.08763659  0.31881151  0.87636897    -0.08200
C686        C  0.06406195  0.30137774  0.89927216    -0.05600
C687        C  0.06924223  0.28673126  0.92600298     0.00400
C688        C  0.09861266  0.28794912  0.92865362    -0.08100
C689        C  0.10622732  0.27358016  0.95843578     0.62300
H690        H  0.14363692  0.30398646  0.90484656     0.13000
H691        H  0.04145576  0.30036974  0.89768470     0.13000
C692        C  0.07928059  0.33659724  0.85438624     0.62500
F693        F  0.13727877  0.28033294  0.95866975    -0.22600
F694        F  0.08958233  0.24667562  0.95313428    -0.20000
F695        F  0.09899826  0.27996020  0.99216936    -0.19600
F696        F  0.05736934  0.32197790  0.82862193    -0.19700
F697        F  0.10421880  0.35597734  0.83748421    -0.20000
F698        F  0.06722809  0.34869203  0.87713945    -0.22700
C699        C  0.24066877  0.30229142  0.77278933    -0.05500
C700        C  0.21943431  0.28589026  0.74677453     0.00400
C701        C  0.18957425  0.28392240  0.74546726    -0.08200
C702        C  0.18227299  0.29846257  0.77052099    -0.05600
C703        C  0.20350848  0.31521628  0.79634569     0.00400
C704        C  0.23365463  0.31748736  0.79725382    -0.08100
C705        C  0.26007323  0.33593371  0.82137242     0.62300
H706        H  0.26353192  0.30380031  0.77344787     0.13000
H707        H  0.15938068  0.29676046  0.77018004     0.13000
C708        C  0.16552433  0.26730903  0.71734429     0.62500
F709        F  0.26881687  0.32125198  0.84370761    -0.22600
F710        F  0.25303377  0.35181953  0.84291398    -0.20000
F711        F  0.28497636  0.35216139  0.79976999    -0.19600
F712        F  0.15582452  0.24088230  0.72379133    -0.19700
F713        F  0.17786707  0.27392395  0.01580621    -0.20000
F714        F  0.13971790  0.27112126  0.71860084    -0.22700
C715        C  0.20513969  0.27729384  0.90087475    -0.05500
C716        C  0.22565874  0.29133780  0.92872272     0.00400
C717        C  0.23318113  0.31807782  0.93440060    -0.08200
C718        C  0.22067375  0.32992573  0.91075350    -0.05600
C719        C  0.20090079  0.31616451  0.88182033     0.00400
C720        C  0.19144900  0.28867112  0.87858668    -0.08100
C721        C  0.16530246  0.26940295  0.85511911     0.62300
H722        H  0.19839587  0.25653849  0.89762741     0.13000
H723        H  0.22665215  0.35024855  0.91456986     0.13000
C724        C  0.25361975  0.33395463  0.96574817     0.62500
F725        F  0.14454299  0.24881310  0.87649460    -0.22600
F726        F  0.17683293  0.25927497  0.82863559    -0.20000
F727        F  0.14924063  0.28059934  0.83896797    -0.19600
F728        F  0.24032258  0.32017161  0.66490871    -0.19700
F729        F  0.25297338  0.35771236  0.63511318    -0.20000
F730        F  0.28326311  0.33760417  0.96047997    -0.22700
C731        C  0.19810572  0.39426535  0.75162439    -0.05500
C732        C  0.21323946  0.39622603  0.78486586     0.00400
C733        C  0.24243101  0.41897257  0.78992013    -0.08200
C734        C  0.25072671  0.44095349  0.76707527    -0.05600
C735        C  0.23284621  0.43977718  0.73686210     0.00400
C736        C  0.20731186  0.41543341  0.72745964    -0.08100
C737        C  0.18960223  0.41143186  0.69206303     0.62300
H738        H  0.17787564  0.37634641  0.74474733     0.13000
H739        H  0.27202916  0.45888323  0.77208522     0.13000
C740        C  0.26755222  0.42017324  0.81460874     0.62500
F741        F  0.17090872  0.42333511  0.69433778    -0.22600
F742        F  0.17260786  0.38570519  0.01667605    -0.20000
F743        F  0.20978457  0.42205320  0.66337552    -0.19600
F744        F  0.25955598  0.39641897  0.83106096    -0.19700
F745        F  0.27444591  0.43943813  0.84071775    -0.20000
F746        F  0.29386741  0.42656206  0.79415663    -0.22700
C747        C  0.23320748  0.40460720  0.89599479    -0.05500
C748        C  0.21005505  0.40173002  0.87126186     0.00400
C749        C  0.20026094  0.42143266  0.87056126    -0.08200
C750        C  0.21328494  0.44241557  0.89532023    -0.05600
C751        C  0.23581638  0.44482329  0.92037549     0.00400
C752        C  0.24712710  0.42623956  0.91980851    -0.08100
C753        C  0.27373079  0.42900055  0.94373611     0.62300
H754        H  0.24109971  0.39008515  0.89563885     0.13000
H755        H  0.20556982  0.45720956  0.89574550     0.13000
C756        C  0.17465315  0.41985953  0.84631938     0.62500
F757        F  0.28036159  0.40834807  0.93888018    -0.22600
F758        F  0.26673218  0.42955111  0.98010340    -0.20000
F759        F  0.30002867  0.45199205  0.93491126    -0.19600
F760        F  0.14917848  0.39604361  0.85192526    -0.19700
F761        F  0.18347622  0.42267330  0.81031768    -0.20000
F762        F  0.16631580  0.43923160  0.85398057    -0.22700
C763        C  0.17806167  0.84938012  0.20227984     0.45700
H764        H  0.17809321  0.85122117  0.23241081    -0.03300
C765        C  0.17819632  0.84568248  0.13223212     0.45800
H766        H  0.17796817  0.84301502  0.10236552    -0.03300
C767        C  0.19182978  0.83146646  0.18886759    -0.17000
C768        C  0.14507327  0.83638888  0.18606916    -0.16800
C769        C  0.19615856  0.87649062  0.18260628    -0.17100
C770        C  0.19299598  0.83067393  0.15146645    -0.17100
C771        C  0.14521819  0.83499070  0.14853550    -0.16700
C772        C  0.19742664  0.87432959  0.14518449    -0.17000
C773        C  0.32234362  0.65355739  0.20316505     0.45700
H774        H  0.32314885  0.65299541  0.23335303    -0.03300
C775        C  0.32010576  0.65578779  0.13292990     0.45800
H776        H  0.32009171  0.65730115  0.10283342    -0.03300
C777        C  0.31003459  0.62631025  0.18469962    -0.17000
C778        C  0.30178479  0.66559305  0.18936952    -0.16800
C779        C  0.35432142  0.67025065  0.18621659    -0.17100
C780        C  0.30766788  0.62728933  0.14744717    -0.17100
C781        C  0.30025978  0.66643820  0.15179033    -0.16700
C782        C  0.35289113  0.67198663  0.14899033    -0.17000
O783        O  0.46078655  0.74865011  0.03708393    -0.72700
O784        O  0.02855144  0.78452568  0.29609874    -0.73700
O785        O  0.46424372  0.75031401  0.29601835    -0.62300
O786        O  0.02652096  0.78288637  0.04089571    -0.70700
O787        O  0.03653026  0.74919848  0.04096497    -0.70300
O788        O  0.47364819  0.71633771  0.29535348    -0.61500
O789        O  0.03801924  0.75046506  0.29609998    -0.74000
O790        O  0.47080670  0.71511269  0.03594261    -0.72800
Cu791      Cu  0.49367080  0.76841817  0.99972175     1.04600
Cu792      Cu  0.50416269  0.73233662  0.99902531     1.04300
C793        C  0.45509771  0.72573366  0.04833781     0.93500
C794        C  0.04426384  0.77338583  0.28494933     0.92600
C795        C  0.45882047  0.72801329  0.28317259     0.84800
C796        C  0.04206308  0.77190569  0.05279404     0.91100
O797        O  0.21516187  0.75313748  0.29642243    -0.72700
O798        O  0.23582767  0.71448079  0.04058735    -0.73700
O799        O  0.21179770  0.75025501  0.04003940    -0.62300
O800        O  0.23860365  0.71618318  0.29732979    -0.70700
O801        O  0.28619179  0.74889529  0.30137292    -0.70300
O802        O  0.25894685  0.78396734  0.04255834    -0.61500
O803        O  0.28320912  0.74801976  0.04393550    -0.74000
O804        O  0.26263956  0.78631205  0.30028798    -0.72800
Cu805      Cu  0.22355618  0.73211260  0.00187811     1.04600
Cu806      Cu  0.27422118  0.76784113  0.00465381     1.04300
C807        C  0.23541181  0.77632459  0.28711860     0.93500
C808        C  0.26275818  0.72531595  0.05461738     0.92600
C809        C  0.23075732  0.77264449  0.05291756     0.84800
C810        C  0.26702115  0.72661032  0.28805474     0.91100
O811        O  0.22259721  0.96967008  0.03642757    -0.72700
O812        O  0.24341071  0.52573078  0.29608989    -0.73700
O813        O  0.22362775  0.97086861  0.29346140    -0.62300
O814        O  0.24539929  0.52590835  0.03873376    -0.70700
O815        O  0.29377811  0.53284459  0.03692261    -0.70300
O816        O  0.27192612  0.97765883  0.29345749    -0.61500
O817        O  0.29171842  0.53246027  0.29467803    -0.74000
O818        O  0.27106567  0.97663751  0.03664134    -0.72800
Cu819      Cu  0.23249280  0.49812136  0.99979828     1.04600
Cu820      Cu  0.28419106  0.50534757  0.99869927     1.04300
C821        C  0.24299145  0.96346302  0.04709164     0.93500
C822        C  0.27087854  0.53826572  0.28398039     0.92600
C823        C  0.24447068  0.96547415  0.28132962     0.84800
C824        C  0.27355403  0.53891379  0.04884652     0.91100
C825        C  0.31550972  0.60692610  0.09208099    -0.05500
C826        C  0.29622212  0.60418725  0.12193631     0.00400
C827        C  0.26838653  0.57993823  0.12624027    -0.08200
C828        C  0.26277665  0.55900759  0.10254239    -0.05600
C829        C  0.28275463  0.56156615  0.07380504     0.00400
C830        C  0.30942776  0.58613154  0.06790385    -0.08100
C831        C  0.33149423  0.59075202  0.03627078     0.62300
H832        H  0.33651334  0.62536347  0.08879157     0.13000
H833        H  0.24197014  0.54038087  0.10612839     0.13000
C834        C  0.24262199  0.57474238  0.15315429     0.62500
F835        F  0.35332778  0.61701020  0.03311895    -0.22600
F836        F  0.31421994  0.58191517  0.33787617    -0.20000
F837        F  0.34696244  0.57622858  0.04140957    -0.19600
F838        F  0.24676399  0.59678698  0.17195186    -0.19700
F839        F  0.24011239  0.55561932  0.17774902    -0.20000
F840        F  0.21500028  0.56556961  0.13455882    -0.22700
C841        C  0.27970292  0.59988567  0.23629222    -0.05500
C842        C  0.29975255  0.60211381  0.20750511     0.00400
C843        C  0.30960337  0.58249685  0.20369183    -0.08200
C844        C  0.29854029  0.56161292  0.22876259    -0.05600
C845        C  0.27884255  0.55975185  0.25749166     0.00400
C846        C  0.26869395  0.57895956  0.26118606    -0.08100
C847        C  0.24668900  0.57785998  0.29125676     0.62300
H848        H  0.27213889  0.61472210  0.23871997     0.13000
H849        H  0.30588203  0.54660166  0.22622384     0.13000
C850        C  0.33221474  0.58211764  0.17566011     0.62500
F851        F  0.24233432  0.59995650  0.29128244    -0.22600
F852        F  0.25807880  0.57624664  0.99080387    -0.20000
F853        F  0.21816899  0.55610106  0.28637630    -0.19600
F854        F  0.35555577  0.57958019  0.19331359    -0.19700
F855        F  0.34591859  0.60440693  0.15451983    -0.20000
F856        F  0.31697127  0.56059057  0.15305756    -0.22700
C857        C  0.39792186  0.71247620  0.20866053    -0.05500
C858        C  0.38302299  0.68479414  0.20901366     0.00400
C859        C  0.39488546  0.67197484  0.23240448    -0.08200
C860        C  0.41992701  0.68711360  0.25510854    -0.05600
C861        C  0.43396936  0.71460514  0.25573009     0.00400
C862        C  0.42316098  0.72774257  0.23153083    -0.08100
C863        C  0.43779867  0.75760231  0.22954958     0.62300
H864        H  0.38898956  0.72226308  0.19123429     0.13000
H865        H  0.42829230  0.67729981  0.27365105     0.13000
C866        C  0.38255973  0.64252894  0.23286073     0.62500
F867        F  0.42649427  0.76592777  0.20063629    -0.22600
F868        F  0.46939226  0.76825592  0.22495036    -0.20000
F869        F  0.43153559  0.76726845  0.26118705    -0.19600
F870        F  0.38297665  0.63436659  0.19785953    -0.19700
F871        F  0.35318056  0.63045293  0.24713330    -0.20000
F872        F  0.40027906  0.63475045  0.25379341    -0.22700
C873        C  0.39935779  0.67598323  0.11790875    -0.05500
C874        C  0.38014535  0.68718898  0.12535205     0.00400
C875        C  0.38605294  0.71121058  0.10831852    -0.08200
C876        C  0.41047649  0.72266940  0.08338091    -0.05600
C877        C  0.42986023  0.71155580  0.07543524     0.00400
C878        C  0.42417167  0.68756605  0.09314587    -0.08100
C879        C  0.44338330  0.67364475  0.08597064     0.62300
H880        H  0.39406652  0.65748306  0.13105109     0.13000
H881        H  0.41414789  0.74052685  0.06948165     0.13000
C882        C  0.36636350  0.72472469  0.11404199     0.62500
F883        F  0.43425981  0.65143758  0.10749615    -0.22600
F884        F  0.47406569  0.69039249  0.09355382    -0.20000
F885        F  0.43982300  0.66476822  0.38523877    -0.19600
F886        F  0.38394928  0.75180003  0.11085499    -0.19700
F887        F  0.35329944  0.71979000  0.14821582    -0.20000
F888        F  0.34347976  0.71602234  0.08792912    -0.22700
C889        C  0.26357345  0.68478019  0.07268519    -0.05800
C890        C  0.27041883  0.71048185  0.08182475     0.00400
C891        C  0.28293720  0.72056340  0.11643653    -0.08200
C892        C  0.29048410  0.70499176  0.13968743    -0.05600
C893        C  0.28522741  0.67949445  0.12987499     0.00400
C894        C  0.26941669  0.66869382  0.09653803    -0.08100
C895        C  0.25685192  0.64021417  0.08511290     0.62300
H896        H  0.25303881  0.67698292  0.04648283     0.13000
H897        H  0.30218910  0.71353135  0.16483761     0.13000
C898        C  0.28811737  0.74748829  0.12888221     0.62500
F899        F  0.25378566  0.62432337  0.11424277    -0.22600
F900        F  0.27597284  0.63800795  0.05917351    -0.20000
F901        F  0.22768532  0.63103907  0.07029688    -0.19600
F902        F  0.26099271  0.74907888  0.12554744    -0.19700
F903        F  0.31082466  0.76688918  0.10783018    -0.20000
F904        F  0.29728408  0.75223480  0.16495844    -0.22700
C905        C  0.25442064  0.69301505  0.23973339    -0.05500
C906        C  0.27711790  0.71207209  0.26221998     0.00400
C907        C  0.30749167  0.71491268  0.26125716    -0.08200
C908        C  0.31371366  0.69873673  0.23758092    -0.05600
C909        C  0.29096211  0.67960510  0.21531599     0.00400
C910        C  0.26043342  0.67628802  0.21704152    -0.08100
C911        C  0.23305847  0.65549212  0.19652172     0.62300
H912        H  0.23117953  0.69065802  0.24038556     0.13000
H913        H  0.33695571  0.70134973  0.23571902     0.13000
C914        C  0.33338495  0.73447221  0.28518208     0.62500
F915        F  0.23960115  0.63754158  0.17921993    -0.22600
F916        F  0.22329337  0.66757142  0.17091151    -0.20000
F917        F  0.20908852  0.64166542  0.22064316    -0.19600
F918        F  0.32464173  0.72991235  0.32142655    -0.19700
F919        F  0.34015198  0.75989786  0.27573661    -0.20000
F920        F  0.36022699  0.73240486  0.28132902    -0.22700
C921        C  0.08181951  0.81444435  0.07611975    -0.05500
C922        C  0.06757847  0.78691173  0.07879635     0.00400
C923        C  0.07747182  0.77531893  0.10625003    -0.08200
C924        C  0.10151450  0.79195050  0.12964203    -0.05600
C925        C  0.11709960  0.81950459  0.12555510     0.00400
C926        C  0.10609497  0.83098194  0.09885663    -0.08100
C927        C  0.11667163  0.86015323  0.09406961     0.62300
H928        H  0.07387988  0.82344196  0.05564041     0.13000
H929        H  0.10832726  0.78336157  0.15136031     0.13000
C930        C  0.06281057  0.74569234  0.11119198     0.62500
F931        F  0.09219174  0.86511203  0.10112092    -0.22600
F932        F  0.12581357  0.86730057  0.05849480    -0.20000
F933        F  0.14049251  0.87573671  0.11679374    -0.19600
F934        F  0.06999598  0.73464481  0.08165992    -0.19700
F935        F  0.03114332  0.73524566  0.11408799    -0.20000
F936        F  0.07322346  0.73882487  0.14231524    -0.22700
C937        C  0.12183139  0.80396821  0.23615541    -0.05500
C938        C  0.11761069  0.82002184  0.21013693     0.00400
C939        C  0.08812746  0.81928075  0.20879305    -0.08200
C940        C  0.06454088  0.80211073  0.23190796    -0.05600
C941        C  0.06951018  0.78733638  0.25860292     0.00400
C942        C  0.09869901  0.78816821  0.26107705    -0.08100
C943        C  0.10599730  0.77336745  0.29052473     0.62300
H944        H  0.14371164  0.80391040  0.23725631     0.13000
H945        H  0.04201522  0.80126486  0.23032319     0.13000
C946        C  0.07965910  0.83676718  0.18626465     0.62500
F947        F  0.13691386  0.77965927  0.29053930    -0.22600
F948        F  0.08889569  0.74653034  0.28491956    -0.20000
F949        F  0.09905438  0.77970930  0.32444082    -0.19600
F950        F  0.05754481  0.82176208  0.16090876    -0.19700
F951        F  0.10443048  0.85584619  0.16878269    -0.20000
F952        F  0.06779589  0.84923150  0.20861024    -0.22700
C953        C  0.24126232  0.80225994  0.10561412    -0.05500
C954        C  0.22008082  0.78586257  0.07955784     0.00400
C955        C  0.19022627  0.78390224  0.07813464    -0.08200
C956        C  0.18284418  0.79839076  0.10319400    -0.05600
C957        C  0.20401562  0.81511244  0.12909611     0.00400
C958        C  0.23418352  0.81744103  0.13003335    -0.08100
C959        C  0.26056283  0.83597626  0.15411653     0.62300
H960        H  0.26413705  0.80379515  0.10631706     0.13000
H961        H  0.15996024  0.79670132  0.10276669     0.13000
C962        C  0.16630493  0.76740391  0.04981767     0.62500
F963        F  0.26935448  0.82139020  0.17657315    -0.22600
F964        F  0.25344189  0.85187378  0.17552674    -0.20000
F965        F  0.28545088  0.85219361  0.13248764    -0.19600
F966        F  0.15655173  0.74094659  0.05606674    -0.19700
F967        F  0.17825216  0.77476642  0.34846630    -0.20000
F968        F  0.14050367  0.77122526  0.05097578    -0.22700
C969        C  0.20590591  0.77733986  0.23367807    -0.05500
C970        C  0.22635682  0.79145874  0.26153912     0.00400
C971        C  0.23382005  0.81819515  0.26709599    -0.08200
C972        C  0.22119552  0.82992134  0.24342226    -0.05600
C973        C  0.20139040  0.81605720  0.21457254     0.00400
C974        C  0.19211875  0.78859524  0.21134912    -0.08100
C975        C  0.16609815  0.76922260  0.18783813     0.62300
H976        H  0.19926548  0.75659876  0.23047182     0.13000
H977        H  0.22709548  0.85025341  0.24715748     0.13000
C978        C  0.25429936  0.83418516  0.29834240     0.62500
F979        F  0.14536070  0.74860690  0.20919667    -0.22600
F980        F  0.17779578  0.75915610  0.16146207    -0.20000
F981        F  0.14997822  0.78029321  0.17154451    -0.19600
F982        F  0.24196154  0.82060287  0.99748972    -0.19700
F983        F  0.25457759  0.85803258  0.96744407    -0.20000
F984        F  0.28388427  0.83765947  0.29321509    -0.22700
C985        C  0.19896380  0.89431147  0.08451215    -0.05500
C986        C  0.21404456  0.89627568  0.11780490     0.00400
C987        C  0.24313392  0.91909379  0.12298477    -0.08200
C988        C  0.25130426  0.94110252  0.10027314    -0.05600
C989        C  0.23341545  0.93991429  0.07007592     0.00400
C990        C  0.20804330  0.91553604  0.06048693    -0.08100
C991        C  0.19024661  0.91156685  0.02516987     0.62300
H992        H  0.17885432  0.87635681  0.07747002     0.13000
H993        H  0.27252807  0.95908190  0.10537889     0.13000
C994        C  0.26830997  0.92038953  0.14764908     0.62500
F995        F  0.17091906  0.92283003  0.02802346    -0.22600
F996        F  0.17308923  0.88516944  0.34916597    -0.20000
F997        F  0.21027738  0.92284762  0.99653082    -0.19600
F998        F  0.26045253  0.89665769  0.16408135    -0.19700
F999        F  0.27510922  0.93963792  0.17376097    -0.20000
F1000       F  0.29464210  0.92688563  0.12717889    -0.22700
C1001       C  0.23400919  0.90467900  0.22888908    -0.05500
C1002       C  0.21074965  0.90161195  0.20420531     0.00400
C1003       C  0.20054657  0.92103350  0.20366926    -0.08200
C1004       C  0.21330049  0.94198164  0.22847497    -0.05600
C1005       C  0.23599697  0.94462430  0.25343382     0.00400
C1006       C  0.24772602  0.92632635  0.25270955    -0.08100
C1007       C  0.27456511  0.92942707  0.27646433     0.62300
H1008       H  0.24214312  0.89029837  0.22850264     0.13000
H1009       H  0.20525270  0.95656024  0.22897446     0.13000
C1010       C  0.17475126  0.91910550  0.17951293     0.62500
F1011       F  0.28170025  0.90908260  0.27136561    -0.22600
F1012       F  0.26758754  0.92976653  0.31288740    -0.20000
F1013       F  0.30056219  0.95265941  0.26765358    -0.19600
F1014       F  0.14977023  0.89492695  0.18470801    -0.19700
F1015       F  0.18375249  0.92245499  0.14354118    -0.20000
F1016       F  0.16558714  0.93789294  0.18766263    -0.22700
C1017       C  0.17652812  0.84921427  0.53522021     0.45700
H1018       H  0.17634124  0.85119687  0.56531706    -0.03300
C1019       C  0.17707476  0.84519169  0.46524449     0.45800
H1020       H  0.17706216  0.84245762  0.43540401    -0.03300
C1021       C  0.19022054  0.83110138  0.52244480    -0.17000
C1022       C  0.14368017  0.83633091  0.51861738    -0.16800
C1023       C  0.19487538  0.87620976  0.51544840    -0.17100
C1024       C  0.19153197  0.83007657  0.48505102    -0.17100
C1025       C  0.14397102  0.83466140  0.48113277    -0.16700
C1026       C  0.19639777  0.87390179  0.47809000    -0.17000
C1027       C  0.32047825  0.65330964  0.53565394     0.45700
H1028       H  0.32181499  0.65308387  0.56575883    -0.03300
C1029       C  0.31629805  0.65484468  0.46556013     0.45800
H1030       H  0.31510777  0.65581257  0.43547562    -0.03300
C1031       C  0.30786284  0.62591890  0.51750857    -0.17000
C1032       C  0.29954295  0.66509775  0.52288074    -0.16800
C1033       C  0.35196401  0.67001099  0.51753593    -0.17100
C1034       C  0.30449334  0.62654511  0.48039911    -0.17100
C1035       C  0.29690676  0.66552394  0.48549878    -0.16700
C1036       C  0.34960104  0.67129864  0.48023549    -0.17000
O1037       O  0.46187079  0.74801066  0.37276090    -0.72700
O1038       O  0.02716413  0.78503589  0.62836381    -0.73700
O1039       O  0.46323579  0.75121829  0.62477475    -0.62300
O1040       O  0.02539815  0.78292614  0.37254273    -0.70700
O1041       O  0.03545516  0.74926646  0.37282733    -0.70300
O1042       O  0.47292117  0.71735033  0.62431882    -0.61500
O1043       O  0.03699441  0.75116032  0.62859287    -0.74000
O1044       O  0.47159494  0.71430021  0.37236633    -0.72800
Cu1045     Cu  0.49496344  0.76753254  0.33559028     1.04600
Cu1046     Cu  0.50528611  0.73132290  0.33543412     1.04300
C1047       C  0.45565646  0.72496547  0.38397879     0.93500
C1048       C  0.04292590  0.77395831  0.61724674     0.92600
C1049       C  0.45803082  0.72892015  0.61197670     0.84800
C1050       C  0.04078091  0.77188973  0.38480058     0.91100
O1051       O  0.21403763  0.75294097  0.63103961    -0.72700
O1052       O  0.23376189  0.71399149  0.37378542    -0.73700
O1053       O  0.21058507  0.75019599  0.37268006    -0.62300
O1054       O  0.23816818  0.71644505  0.63156565    -0.70700
O1055       O  0.28568121  0.74936455  0.63490086    -0.70300
O1056       O  0.25789675  0.78350354  0.37687998    -0.61500
O1057       O  0.28129085  0.74711367  0.37872612    -0.74000
O1058       O  0.26135473  0.78639432  0.63429220    -0.72800
Cu1059     Cu  0.22295377  0.73226550  0.33478220     1.04600
Cu1060     Cu  0.27375758  0.76761106  0.33932176     1.04300
C1061       C  0.23397017  0.77619002  0.62148881     0.93500
C1062       C  0.26027726  0.72448967  0.38883619     0.92600
C1063       C  0.22949731  0.77229006  0.38640640     0.84800
C1064       C  0.26647655  0.72698309  0.62185204     0.91100
O1065       O  0.22291560  0.96963693  0.36982109    -0.72700
O1066       O  0.24174324  0.52497004  0.62839626    -0.73700
O1067       O  0.22241584  0.97061642  0.62687784    -0.62300
O1068       O  0.24378548  0.52489744  0.37228678    -0.70700
O1069       O  0.29228520  0.53208658  0.37120490    -0.70300
O1070       O  0.27051856  0.97693429  0.62697969    -0.61500
O1071       O  0.29014311  0.53197731  0.62630263    -0.74000
O1072       O  0.27138793  0.97665351  0.37022976    -0.72800
Cu1073     Cu  0.23148815  0.49746038  0.33304681     1.04600
Cu1074     Cu  0.28323046  0.50478950  0.33278540     1.04300
C1075       C  0.24326665  0.96340338  0.38054030     0.93500
C1076       C  0.26906470  0.53757909  0.61590091     0.92600
C1077       C  0.24304903  0.96490916  0.61485682     0.84800
C1078       C  0.27181570  0.53798728  0.38276964     0.91100
C1079       C  0.31242158  0.60625497  0.42519835    -0.05500
C1080       C  0.29311379  0.60335246  0.45508801     0.00400
C1081       C  0.26563857  0.57885113  0.45969962    -0.08200
C1082       C  0.26037864  0.55795042  0.43609981    -0.05600
C1083       C  0.28057960  0.56064434  0.40755349     0.00400
C1084       C  0.30696439  0.58536594  0.40151784    -0.08100
C1085       C  0.32964812  0.58998524  0.37058731     0.62300
H1086       H  0.33318328  0.62485678  0.42174608     0.13000
H1087       H  0.23979214  0.53917376  0.43977019     0.13000
C1088       C  0.23998497  0.57322611  0.48696770     0.62500
F1089       F  0.35097272  0.61635898  0.36698805    -0.22600
F1090       F  0.31108795  0.58268332  0.66868021    -0.20000
F1091       F  0.34563987  0.57607573  0.37721789    -0.19600
F1092       F  0.24391649  0.59504334  0.50615669    -0.19700
F1093       F  0.23798621  0.55409723  0.51123769    -0.20000
F1094       F  0.21218957  0.56384028  0.46869583    -0.22700
C1095       C  0.27782483  0.59941126  0.56906426    -0.05500
C1096       C  0.29808631  0.60189498  0.54041415     0.00400
C1097       C  0.30783839  0.58225662  0.53614148    -0.08200
C1098       C  0.29676371  0.56124633  0.56096747    -0.05600
C1099       C  0.27671248  0.55902659  0.58946126     0.00400
C1100       C  0.26619355  0.57800005  0.59315229    -0.08100
C1101       C  0.24291557  0.57601130  0.62210664     0.62300
H1102       H  0.27029434  0.61425877  0.57170940     0.13000
H1103       H  0.30422614  0.54632016  0.55828863     0.13000
C1104       C  0.33015555  0.58182769  0.50768576     0.62500
F1105       F  0.23765720  0.59764206  0.62171306    -0.22600
F1106       F  0.25821259  0.57636722  0.32495956    -0.20000
F1107       F  0.21496773  0.55388902  0.61589944    -0.19600
F1108       F  0.35360573  0.57920216  0.52490998    -0.19700
F1109       F  0.34374900  0.60412195  0.48648144    -0.20000
F1110       F  0.31464004  0.56029602  0.48517172    -0.22700
C1111       C  0.39825621  0.71220588  0.53562399    -0.05500
C1112       C  0.38117050  0.68467532  0.53956031     0.00400
C1113       C  0.39149224  0.67222188  0.56568423    -0.08200
C1114       C  0.41670061  0.68769668  0.58795686    -0.05600
C1115       C  0.43296456  0.71508058  0.58491553     0.00400
C1116       C  0.42425194  0.72769459  0.55747736    -0.08100
C1117       C  0.44241256  0.75714099  0.55059558     0.62300
H1118       H  0.39065729  0.72173065  0.51585909     0.13000
H1119       H  0.42357477  0.67828851  0.60891949     0.13000
C1120       C  0.37792584  0.64269895  0.56910536     0.62500
F1121       F  0.43273006  0.76447486  0.51926876    -0.22600
F1122       F  0.47340019  0.76437792  0.54644338    -0.20000
F1123       F  0.43862310  0.77077826  0.57946393    -0.19600
F1124       F  0.37551421  0.63243905  0.53491396    -0.19700
F1125       F  0.34958367  0.63210752  0.58613501    -0.20000
F1126       F  0.39647580  0.63533580  0.58916116    -0.22700
C1127       C  0.39658685  0.67470489  0.45065877    -0.05500
C1128       C  0.37657421  0.68548533  0.45552052     0.00400
C1129       C  0.38251370  0.70896337  0.43684035    -0.08200
C1130       C  0.40907728  0.72136514  0.41507318    -0.05600
C1131       C  0.42915404  0.71056901  0.40956753     0.00400
C1132       C  0.42239877  0.68632616  0.42724725    -0.08100
C1133       C  0.44154024  0.67220070  0.42136321     0.62300
H1134       H  0.39119938  0.65652685  0.46481398     0.13000
H1135       H  0.41362426  0.73931619  0.40087778     0.13000
C1136       C  0.36056750  0.72058740  0.43839693     0.62500
F1137       F  0.43111254  0.64958371  0.44230187    -0.22600
F1138       F  0.47192550  0.68856366  0.43078405    -0.20000
F1139       F  0.44053882  0.66580152  0.71456084    -0.19600
F1140       F  0.37284104  0.74525363  0.42232540    -0.19700
F1141       F  0.35368292  0.72322306  0.47410621    -0.20000
F1142       F  0.33403774  0.70426131  0.41974589    -0.22700
C1143       C  0.25801503  0.68311924  0.40862031    -0.05800
C1144       C  0.26681982  0.70939770  0.41665354     0.00400
C1145       C  0.28062965  0.71995940  0.45060314    -0.08200
C1146       C  0.28811711  0.70436507  0.47380645    -0.05600
C1147       C  0.28119435  0.67835211  0.46475238     0.00400
C1148       C  0.26375300  0.66707221  0.43256911    -0.08100
C1149       C  0.24994480  0.63835477  0.42203725     0.62300
H1150       H  0.24635766  0.67491241  0.38307495     0.13000
H1151       H  0.30135614  0.71327938  0.49800030     0.13000
C1152       C  0.28742245  0.74743984  0.46237818     0.62500
F1153       F  0.24940270  0.62298676  0.45069571    -0.22600
F1154       F  0.26654174  0.63544943  0.39351222    -0.20000
F1155       F  0.21964619  0.62920453  0.41109960    -0.19600
F1156       F  0.26127955  0.75047905  0.45828306    -0.19700
F1157       F  0.31107162  0.76601454  0.44141338    -0.20000
F1158       F  0.29620664  0.75206601  0.49858960    -0.22700
C1159       C  0.25324648  0.69306631  0.57400237    -0.05500
C1160       C  0.27630603  0.71236288  0.59586397     0.00400
C1161       C  0.30663897  0.71513581  0.59442911    -0.08200
C1162       C  0.31250513  0.69874739  0.57072934    -0.05600
C1163       C  0.28931581  0.67929818  0.54923850     0.00400
C1164       C  0.25880769  0.67589769  0.55176308    -0.08100
C1165       C  0.23103515  0.65441409  0.53268513     0.62300
H1166       H  0.23001997  0.69072330  0.57504758     0.13000
H1167       H  0.33574792  0.70140057  0.56826581     0.13000
C1168       C  0.33280424  0.73479561  0.61793433     0.62500
F1169       F  0.23718389  0.63558183  0.51742878    -0.22600
F1170       F  0.22116305  0.66547395  0.50573120    -0.20000
F1171       F  0.20727758  0.64180277  0.55751998    -0.19600
F1172       F  0.32445540  0.73040293  0.65430963    -0.19700
F1173       F  0.33947516  0.76018256  0.60839992    -0.20000
F1174       F  0.35958488  0.73267984  0.61365942    -0.22700
C1175       C  0.08069451  0.81431369  0.40837216    -0.05500
C1176       C  0.06603223  0.78678544  0.41123750     0.00400
C1177       C  0.07546572  0.77509834  0.43905404    -0.08200
C1178       C  0.09975408  0.79163419  0.46233497    -0.05600
C1179       C  0.11581609  0.81919573  0.45800817     0.00400
C1180       C  0.10507467  0.83074942  0.43110227    -0.08100
C1181       C  0.11619253  0.85996593  0.42591730     0.62300
H1182       H  0.07306367  0.82339095  0.38766433     0.13000
H1183       H  0.10641554  0.78294998  0.48409205     0.13000
C1184       C  0.06006620  0.74546310  0.44444129     0.62500
F1185       F  0.09196656  0.86536202  0.43242290    -0.22600
F1186       F  0.12565968  0.86681533  0.39035733    -0.20000
F1187       F  0.13996769  0.87545593  0.44876697    -0.19600
F1188       F  0.06727861  0.73394648  0.41549344    -0.19700
F1189       F  0.02839864  0.73548311  0.44662264    -0.20000
F1190       F  0.06975797  0.73857253  0.47611624    -0.22700
C1191       C  0.12027774  0.80420640  0.56870261    -0.05500
C1192       C  0.11616099  0.82019093  0.54252504     0.00400
C1193       C  0.08684493  0.81972636  0.54107855    -0.08200
C1194       C  0.06318396  0.80268634  0.56420319    -0.05600
C1195       C  0.06807173  0.78788443  0.59095912     0.00400
C1196       C  0.09720689  0.78869416  0.59372222    -0.08100
C1197       C  0.10457855  0.77425858  0.62365561     0.62300
H1198       H  0.14205864  0.80400632  0.56993316     0.13000
H1199       H  0.04073735  0.80198804  0.56259940     0.13000
C1200       C  0.07873139  0.83742655  0.51849956     0.62500
F1201       F  0.13560748  0.78094152  0.62419714    -0.22600
F1202       F  0.08790601  0.74736374  0.61828063    -0.20000
F1203       F  0.09720167  0.78064605  0.65730079    -0.19600
F1204       F  0.05626610  0.82255735  0.49341465    -0.19700
F1205       F  0.10358875  0.85613936  0.50064105    -0.20000
F1206       F  0.06748940  0.85034884  0.54089186    -0.22700
C1207       C  0.23959312  0.80131536  0.43969611    -0.05500
C1208       C  0.21860783  0.78525187  0.41323031     0.00400
C1209       C  0.18879414  0.78336876  0.41170273    -0.08200
C1210       C  0.18124253  0.79754772  0.43711593    -0.05600
C1211       C  0.20236725  0.81419805  0.46311917     0.00400
C1212       C  0.23247793  0.81641990  0.46420253    -0.08100
C1213       C  0.25880241  0.83478158  0.48849513     0.62300
H1214       H  0.26241876  0.80275678  0.44055452     0.13000
H1215       H  0.15837174  0.79588780  0.43664008     0.13000
C1216       C  0.16519702  0.76745502  0.38275826     0.62500
F1217       F  0.26731323  0.82001232  0.51096431    -0.22600
F1218       F  0.25176944  0.85073221  0.50990116    -0.20000
F1219       F  0.28385426  0.85095754  0.46705715    -0.19600
F1220       F  0.15515477  0.74086642  0.38816084    -0.19700
F1221       F  0.17613575  0.77265526  0.68330705    -0.20000
F1222       F  0.13952424  0.77146405  0.38383486    -0.22700
C1223       C  0.20380778  0.77694593  0.56830963    -0.05500
C1224       C  0.22441970  0.79115219  0.59603521     0.00400
C1225       C  0.23169418  0.81786347  0.60154034    -0.08200
C1226       C  0.21913796  0.82957226  0.57766739    -0.05600
C1227       C  0.19949654  0.81570232  0.54867424     0.00400
C1228       C  0.19003906  0.78819162  0.54583833    -0.08100
C1229       C  0.16371069  0.76879391  0.52271608     0.62300
H1230       H  0.19707176  0.75617853  0.56527574     0.13000
H1231       H  0.22500855  0.84988889  0.58133448     0.13000
C1232       C  0.25190470  0.83385545  0.63296031     0.62500
F1233       F  0.14286907  0.74858083  0.54455048    -0.22600
F1234       F  0.17493647  0.75817607  0.49656772    -0.20000
F1235       F  0.14784836  0.78001078  0.50612932    -0.19600
F1236       F  0.24262609  0.82128238  0.33100002    -0.19700
F1237       F  0.25604344  0.85884241  0.30083103    -0.20000
F1238       F  0.28171908  0.83791197  0.62776897    -0.22700
C1239       C  0.19876396  0.89399621  0.41723266    -0.05500
C1240       C  0.21343209  0.89580476  0.45076671     0.00400
C1241       C  0.24254316  0.91851671  0.45632487    -0.08200
C1242       C  0.25103085  0.94068526  0.43381382    -0.05600
C1243       C  0.23350041  0.93970009  0.40334991     0.00400
C1244       C  0.20822695  0.91535109  0.39333044    -0.08100
C1245       C  0.19125375  0.91152018  0.35742028     0.62300
H1246       H  0.17873297  0.87605637  0.40989980     0.13000
H1247       H  0.27224465  0.95859495  0.43924620     0.13000
C1248       C  0.26747774  0.91943018  0.48107289     0.62500
F1249       F  0.17264021  0.92352895  0.35886530    -0.22600
F1250       F  0.16952833  0.88523105  0.68464681    -0.20000
F1251       F  0.21208868  0.92216500  0.32934778    -0.19600
F1252       F  0.25922293  0.89555565  0.49731019    -0.19700
F1253       F  0.27443287  0.93858991  0.50735558    -0.20000
F1254       F  0.29381801  0.92576322  0.46070106    -0.22700
C1255       C  0.23247451  0.90414660  0.56203565    -0.05500
C1256       C  0.20953370  0.90134556  0.53704119     0.00400
C1257       C  0.19951597  0.92089034  0.53647021    -0.08200
C1258       C  0.21212061  0.94168084  0.56159269    -0.05600
C1259       C  0.23443817  0.94400963  0.58694415     0.00400
C1260       C  0.24591344  0.92552876  0.58632736    -0.08100
C1261       C  0.27205726  0.92803443  0.61088573     0.62300
H1262       H  0.24050030  0.88970580  0.56162353     0.13000
H1263       H  0.20422480  0.95635667  0.56206749     0.13000
C1264       C  0.17405774  0.91925629  0.51192669     0.62500
F1265       F  0.27888479  0.90750487  0.60591091    -0.22600
F1266       F  0.26424587  0.92805492  0.64707437    -0.20000
F1267       F  0.29849901  0.95116090  0.60299924    -0.19600
F1268       F  0.14859203  0.89541022  0.51743862    -0.19700
F1269       F  0.18311292  0.92200487  0.47600795    -0.20000
F1270       F  0.16563792  0.93861464  0.51930067    -0.22700
C1271       C  0.17574342  0.84883336  0.86933840     0.45700
H1272       H  0.17573054  0.85067398  0.89946953    -0.03300
C1273       C  0.17591865  0.84518785  0.79927316     0.45800
H1274       H  0.17582004  0.84260884  0.76937677    -0.03300
C1275       C  0.18940708  0.83081945  0.85608702    -0.17000
C1276       C  0.14276071  0.83590786  0.85295464    -0.16800
C1277       C  0.19398655  0.87596398  0.84976785    -0.17100
C1278       C  0.19053361  0.83001248  0.81868536    -0.17100
C1279       C  0.14286825  0.83463098  0.81536374    -0.16700
C1280       C  0.19521015  0.87383927  0.81233700    -0.17000
C1281       C  0.32258697  0.65336070  0.86800293     0.45700
H1282       H  0.32480467  0.65293825  0.89808450    -0.03300
C1283       C  0.31756409  0.65480876  0.79797177     0.45800
H1284       H  0.31620901  0.65583049  0.76793380    -0.03300
C1285       C  0.30925156  0.62594461  0.85006515    -0.17000
C1286       C  0.30145278  0.66519731  0.85570432    -0.16800
C1287       C  0.35384768  0.66976979  0.84908867    -0.17100
C1288       C  0.30570089  0.62650533  0.81295922    -0.17100
C1289       C  0.29854677  0.66569372  0.81827950    -0.16700
C1290       C  0.35099657  0.67117295  0.81199422    -0.17000
O1291       O  0.46075963  0.74887192  0.70207492    -0.72700
O1292       O  0.02822352  0.78394384  0.96456961    -0.73700
O1293       O  0.46280610  0.75110888  0.95991753    -0.62300
O1294       O  0.02465262  0.78393566  0.70497661    -0.70700
O1295       O  0.03501112  0.75047234  0.70527669    -0.70300
O1296       O  0.47248799  0.71736705  0.95888586    -0.61500
O1297       O  0.03763161  0.74983280  0.96422951    -0.74000
O1298       O  0.47073878  0.71530831  0.70126997    -0.72800
Cu1299     Cu  0.49391023  0.76849564  0.66494382     1.04600
Cu1300     Cu  0.50434988  0.73233674  0.66464471     1.04300
C1301       C  0.45494247  0.72593608  0.71336913     0.93500
C1302       C  0.04357903  0.77264375  0.95290652     0.92600
C1303       C  0.45750409  0.72891337  0.94671146     0.84800
C1304       C  0.04015092  0.77301072  0.71735619     0.91100
O1305       O  0.21429469  0.75236186  0.96356910    -0.72700
O1306       O  0.23424334  0.71427745  0.70804100    -0.73700
O1307       O  0.21025965  0.74998772  0.70735546    -0.62300
O1308       O  0.23859817  0.71581749  0.96415908    -0.70700
O1309       O  0.28612981  0.74885363  0.96660957    -0.70300
O1310       O  0.25735970  0.78364914  0.71098741    -0.61500
O1311       O  0.28160458  0.74769020  0.71243570    -0.74000
O1312       O  0.26165135  0.78581795  0.96579803    -0.72800
Cu1313     Cu  0.22262920  0.73230327  0.66926261     1.04600
Cu1314     Cu  0.27325875  0.76795231  0.67315020     1.04300
C1315       C  0.23406871  0.77556067  0.95359392     0.93500
C1316       C  0.26093258  0.72494810  0.72270029     0.92600
C1317       C  0.22901568  0.77222514  0.72078166     0.84800
C1318       C  0.26686668  0.72624387  0.95429206     0.91100
O1319       O  0.22165588  0.96969023  0.70330551    -0.72700
O1320       O  0.24391663  0.52601362  0.96248155    -0.73700
O1321       O  0.22309853  0.97113833  0.96006467    -0.62300
O1322       O  0.24333840  0.52497038  0.70456263    -0.70700
O1323       O  0.29187760  0.53228454  0.70266999    -0.70300
O1324       O  0.27124092  0.97752782  0.95990871    -0.61500
O1325       O  0.29223416  0.53280741  0.96035589    -0.74000
O1326       O  0.26987502  0.97607017  0.70372788    -0.72800
Cu1327     Cu  0.23064455  0.49713318  0.66579441     1.04600
Cu1328     Cu  0.28247900  0.50470265  0.66469694     1.04300
C1329       C  0.24173195  0.96316707  0.71411425     0.93500
C1330       C  0.27121589  0.53846625  0.94988397     0.92600
C1331       C  0.24372145  0.96548057  0.94790486     0.84800
C1332       C  0.27149617  0.53817300  0.71455297     0.91100
C1333       C  0.31315014  0.60617735  0.75752509    -0.05500
C1334       C  0.29419047  0.60326844  0.78777177     0.00400
C1335       C  0.26658086  0.57888701  0.79243416    -0.08200
C1336       C  0.26092511  0.55801783  0.76860997    -0.05600
C1337       C  0.28054826  0.56082170  0.73937530     0.00400
C1338       C  0.30680424  0.58555614  0.73299492    -0.08100
C1339       C  0.32807089  0.59058958  0.70039674     0.62300
H1340       H  0.33399264  0.62470098  0.75394982     0.13000
H1341       H  0.24036276  0.53925340  0.77248719     0.13000
C1342       C  0.24110935  0.57342684  0.81987994     0.62500
F1343       F  0.34898099  0.61705923  0.69660017    -0.22600
F1344       F  0.31542195  0.58341898  0.00386795    -0.20000
F1345       F  0.34457426  0.57685187  0.70453152    -0.19600
F1346       F  0.24532549  0.59531930  0.83907322    -0.19700
F1347       F  0.23905689  0.55425539  0.84410425    -0.20000
F1348       F  0.21324735  0.56419952  0.80178930    -0.22700
C1349       C  0.27950728  0.59989335  0.90224715    -0.05500
C1350       C  0.29926645  0.60200663  0.87323249     0.00400
C1351       C  0.30909145  0.58244294  0.86917911    -0.08200
C1352       C  0.29822858  0.56154576  0.89418751    -0.05600
C1353       C  0.27875798  0.55973654  0.92317610     0.00400
C1354       C  0.26854275  0.57890612  0.92703020    -0.08100
C1355       C  0.24648253  0.57767357  0.95711224     0.62300
H1356       H  0.27208012  0.61481015  0.90484896     0.13000
H1357       H  0.30568743  0.54661911  0.89151913     0.13000
C1358       C  0.33205243  0.58270799  0.84120747     0.62500
F1359       F  0.24191482  0.59966186  0.95714579    -0.22600
F1360       F  0.25347338  0.57444776  0.65638909    -0.20000
F1361       F  0.21804047  0.55581598  0.95221301    -0.19600
F1362       F  0.35541879  0.58017074  0.85877916    -0.19700
F1363       F  0.34565952  0.60545703  0.82097492    -0.20000
F1364       F  0.31725120  0.56157985  0.81784673    -0.22700
C1365       C  0.39368218  0.71219659  0.87501786    -0.05500
C1366       C  0.38314519  0.68509384  0.87044534     0.00400
C1367       C  0.39876830  0.67327191  0.88929441    -0.08200
C1368       C  0.42344730  0.68878980  0.91235244    -0.05600
C1369       C  0.43302540  0.71556277  0.91843943     0.00400
C1370       C  0.41819668  0.72777233  0.89868940    -0.08100
C1371       C  0.42752750  0.75688614  0.90236064     0.62300
H1372       H  0.38138686  0.72092749  0.86127812     0.13000
H1373       H  0.43497586  0.67963354  0.92697047     0.13000
C1374       C  0.39000197  0.64445386  0.88568602     0.62500
F1375       F  0.41184176  0.76470013  0.87810483    -0.22600
F1376       F  0.45875389  0.77183814  0.89534158    -0.20000
F1377       F  0.42093444  0.76209534  0.93711412    -0.19600
F1378       F  0.39354715  0.63911576  0.85001119    -0.19700
F1379       F  0.36006766  0.62939818  0.89707269    -0.20000
F1380       F  0.40823049  0.63727127  0.90667754    -0.22700
C1381       C  0.39703846  0.67490418  0.77982312    -0.05500
C1382       C  0.37758836  0.68590628  0.78696260     0.00400
C1383       C  0.38358962  0.70994531  0.76988727    -0.08200
C1384       C  0.40954365  0.72248591  0.74718276    -0.05600
C1385       C  0.42922632  0.71156477  0.73983140     0.00400
C1386       C  0.42288457  0.68716590  0.75669836    -0.08100
C1387       C  0.44263084  0.67359675  0.75054738     0.62300
H1388       H  0.39105521  0.65594210  0.79165199     0.13000
H1389       H  0.41387605  0.74064467  0.73373444     0.13000
C1390       C  0.36182535  0.72163000  0.77309591     0.62500
F1391       F  0.43325051  0.65132704  0.77201010    -0.22600
F1392       F  0.47302410  0.69055312  0.75924463    -0.20000
F1393       F  0.44021190  0.66564332  0.04998843    -0.19600
F1394       F  0.37447685  0.74698082  0.75921905    -0.19700
F1395       F  0.35452450  0.72273860  0.80907205    -0.20000
F1396       F  0.33551346  0.70619869  0.75348634    -0.22700
C1397       C  0.25982420  0.68375686  0.74148047    -0.05800
C1398       C  0.26805539  0.70985165  0.75010279     0.00400
C1399       C  0.28168593  0.72013151  0.78425612    -0.08200
C1400       C  0.28922410  0.70440759  0.80722393    -0.05600
C1401       C  0.28273466  0.67856926  0.79766261     0.00400
C1402       C  0.26569673  0.66758122  0.76510310    -0.08100
C1403       C  0.25246972  0.63900807  0.75386903     0.62300
H1404       H  0.24844761  0.67578542  0.71572190     0.13000
H1405       H  0.30212341  0.71307535  0.83171821     0.13000
C1406       C  0.28814854  0.74742785  0.79653348     0.62500
F1407       F  0.25087358  0.62325734  0.78257608    -0.22600
F1408       F  0.27021097  0.63658126  0.72630323    -0.20000
F1409       F  0.22262346  0.62985612  0.74123425    -0.19600
F1410       F  0.26160664  0.74997589  0.79351284    -0.19700
F1411       F  0.31115415  0.76630303  0.77518897    -0.20000
F1412       F  0.29765709  0.75208310  0.83250492    -0.22700
C1413       C  0.25412329  0.69246995  0.90635280    -0.05500
C1414       C  0.27675248  0.71130098  0.92906380     0.00400
C1415       C  0.30668562  0.71322949  0.92943253    -0.08200
C1416       C  0.31295589  0.69711068  0.90570867    -0.05600
C1417       C  0.29047444  0.67861363  0.88254048     0.00400
C1418       C  0.25998414  0.67543870  0.88416614    -0.08100
C1419       C  0.23240798  0.65424599  0.86446287     0.62300
H1420       H  0.23102078  0.69043876  0.90660230     0.13000
H1421       H  0.33599980  0.69927241  0.90461844     0.13000
C1422       C  0.33192693  0.73159864  0.95506447     0.62500
F1423       F  0.23885074  0.63596703  0.84802886    -0.22600
F1424       F  0.22229592  0.66573263  0.83836847    -0.20000
F1425       F  0.20872014  0.64090051  0.88912480    -0.19600
F1426       F  0.32133817  0.72679679  0.99065164    -0.19700
F1427       F  0.34075348  0.75751107  0.94600784    -0.20000
F1428       F  0.35789406  0.72806352  0.95318027    -0.22700
C1429       C  0.07889304  0.81527299  0.74332605    -0.05500
C1430       C  0.06513133  0.78769885  0.74435689     0.00400
C1431       C  0.07540031  0.77565400  0.77083318    -0.08200
C1432       C  0.09932904  0.79187391  0.79473357    -0.05600
C1433       C  0.11463684  0.81951854  0.79207796     0.00400
C1434       C  0.10330565  0.83142040  0.76631880    -0.08100
C1435       C  0.11393800  0.86066523  0.76254651     0.62300
H1436       H  0.07070912  0.82462857  0.72368358     0.13000
H1437       H  0.10646393  0.78286112  0.81553358     0.13000
C1438       C  0.06144137  0.74593185  0.77409098     0.62500
F1439       F  0.08962425  0.86562226  0.77069887    -0.22600
F1440       F  0.12272528  0.86834978  0.72701386    -0.20000
F1441       F  0.13808680  0.87581839  0.78510334    -0.19600
F1442       F  0.06933081  0.73606324  0.74380826    -0.19700
F1443       F  0.02967234  0.73476142  0.77675584    -0.20000
F1444       F  0.07196371  0.73849466  0.80460606    -0.22700
C1445       C  0.12016460  0.80324854  0.90272967    -0.05500
C1446       C  0.11549308  0.81920774  0.87697059     0.00400
C1447       C  0.08593462  0.81829077  0.87614099    -0.08200
C1448       C  0.06262772  0.80088712  0.89933778    -0.05600
C1449       C  0.06817173  0.78635079  0.92590972     0.00400
C1450       C  0.09747864  0.78745414  0.92798005    -0.08100
C1451       C  0.10540347  0.77301879  0.95739648     0.62300
H1452       H  0.14211060  0.80336959  0.90357609     0.13000
H1453       H  0.03999394  0.79985840  0.89818192     0.13000
C1454       C  0.07729528  0.83600690  0.85440739     0.62500
F1455       F  0.13643514  0.77969239  0.95704309    -0.22600
F1456       F  0.08862702  0.74612513  0.95207047    -0.20000
F1457       F  0.09862452  0.77938415  0.99138790    -0.19600
F1458       F  0.05532996  0.82134293  0.82871922    -0.19700
F1459       F  0.10207549  0.85552531  0.83746519    -0.20000
F1460       F  0.06517029  0.84793167  0.87737104    -0.22700
C1461       C  0.23900972  0.80165071  0.77349748    -0.05500
C1462       C  0.21796056  0.78515421  0.74743306     0.00400
C1463       C  0.18793417  0.78286853  0.74603702    -0.08200
C1464       C  0.18042790  0.79744668  0.77083583    -0.05600
C1465       C  0.20156458  0.81437794  0.79657829     0.00400
C1466       C  0.23176389  0.81679874  0.79773278    -0.08100
C1467       C  0.25804465  0.83540422  0.82187120     0.62300
H1468       H  0.26194865  0.80332620  0.77432214     0.13000
H1469       H  0.15752859  0.79571879  0.77028761     0.13000
C1470       C  0.16395032  0.76590216  0.71806597     0.62500
F1471       F  0.26668570  0.82087422  0.84463451    -0.22600
F1472       F  0.25087324  0.85139873  0.84296976    -0.20000
F1473       F  0.28304629  0.85152783  0.80033051    -0.19600
F1474       F  0.15489921  0.73958611  0.72456081    -0.19700
F1475       F  0.17886390  0.77417792  0.01522872    -0.20000
F1476       F  0.13775269  0.76913325  0.71949639    -0.22700
C1477       C  0.20290849  0.77629527  0.90130279    -0.05500
C1478       C  0.22414409  0.79050247  0.92850211     0.00400
C1479       C  0.23191545  0.81734489  0.93385035    -0.08200
C1480       C  0.21912810  0.82913105  0.91043897    -0.05600
C1481       C  0.19893586  0.81529651  0.88187053     0.00400
C1482       C  0.18914274  0.78770580  0.87907931    -0.08100
C1483       C  0.16257291  0.76841904  0.85616152     0.62300
H1484       H  0.19582650  0.75545800  0.89837838     0.13000
H1485       H  0.22530002  0.84949661  0.91406280     0.13000
C1486       C  0.25294976  0.83344151  0.96464149     0.62500
F1487       F  0.14161277  0.74840042  0.87815594    -0.22600
F1488       F  0.17343565  0.75751378  0.83000005    -0.20000
F1489       F  0.14697239  0.77985525  0.83958516    -0.19600
F1490       F  0.24041655  0.82064921  0.66546910    -0.19700
F1491       F  0.25294762  0.85823172  0.63585116    -0.20000
F1492       F  0.28247952  0.83703178  0.95859028    -0.22700
C1493       C  0.19653761  0.89413591  0.75196410    -0.05500
C1494       C  0.21177836  0.89588986  0.78507664     0.00400
C1495       C  0.24102134  0.91857815  0.79020053    -0.08200
C1496       C  0.24941953  0.94062508  0.76750588    -0.05600
C1497       C  0.23167187  0.93960818  0.73727520     0.00400
C1498       C  0.20594366  0.91538202  0.72784513    -0.08100
C1499       C  0.18846497  0.91156626  0.69230508     0.62300
H1500       H  0.17617920  0.87628001  0.74511483     0.13000
H1501       H  0.27078816  0.95848402  0.77258193     0.13000
C1502       C  0.26614589  0.91972996  0.81482248     0.62500
F1503       F  0.17049815  0.92416768  0.69406875    -0.22600
F1504       F  0.17271669  0.88517289  0.01668062    -0.20000
F1505       F  0.20888905  0.92161275  0.66369213    -0.19600
F1506       F  0.25814435  0.89598775  0.83125153    -0.19700
F1507       F  0.27310466  0.93899980  0.84094234    -0.20000
F1508       F  0.29242339  0.92608443  0.79431377    -0.22700
C1509       C  0.23195176  0.90398442  0.89619038    -0.05500
C1510       C  0.20879614  0.90109890  0.87143605     0.00400
C1511       C  0.19900013  0.92078408  0.87077239    -0.08200
C1512       C  0.21225611  0.94194338  0.89521626    -0.05600
C1513       C  0.23485666  0.94442106  0.92022033     0.00400
C1514       C  0.24593321  0.92567557  0.91994022    -0.08100
C1515       C  0.27227743  0.92828411  0.94422768     0.62300
H1516       H  0.23977855  0.88943080  0.89592893     0.13000
H1517       H  0.20464314  0.95680634  0.89542862     0.13000
C1518       C  0.17309572  0.91894249  0.84690350     0.62500
F1519       F  0.27876999  0.90754401  0.93959246    -0.22600
F1520       F  0.26497862  0.92883514  0.98048698    -0.20000
F1521       F  0.29875505  0.95120194  0.93567154    -0.19600
F1522       F  0.14820279  0.89466411  0.85182302    -0.19700
F1523       F  0.18204564  0.92266512  0.81090238    -0.20000
F1524       F  0.16379103  0.93754555  0.85567475    -0.22700
C1525       C  0.67759704  0.34981663  0.20252476     0.45700
H1526       H  0.67777010  0.35194060  0.23262084    -0.03300
C1527       C  0.67732455  0.34543486  0.13252371     0.45800
H1528       H  0.67699590  0.34259817  0.10266918    -0.03300
C1529       C  0.69140239  0.33184832  0.18955840    -0.17000
C1530       C  0.64454098  0.33658145  0.18648116    -0.16800
C1531       C  0.69548221  0.37674502  0.18234303    -0.17100
C1532       C  0.69233328  0.33067602  0.15215520    -0.17100
C1533       C  0.64438777  0.33473601  0.14898362    -0.16700
C1534       C  0.69648138  0.37423024  0.14494524    -0.17000
C1535       C  0.82094514  0.15340386  0.20206953     0.45700
H1536       H  0.82241442  0.15315866  0.23218527    -0.03300
C1537       C  0.81657252  0.15495805  0.13200087     0.45800
H1538       H  0.81530790  0.15593355  0.10192984    -0.03300
C1539       C  0.80797924  0.12598876  0.18392202    -0.17000
C1540       C  0.80020166  0.16541916  0.18942563    -0.16800
C1541       C  0.85242035  0.16988104  0.18381646    -0.17100
C1542       C  0.80458667  0.12662025  0.14681237    -0.17100
C1543       C  0.79739579  0.16580754  0.15205939    -0.16700
C1544       C  0.84996110  0.17126808  0.14654184    -0.17000
O1545       O  0.96127218  0.24767642  0.03755977    -0.72700
O1546       O  0.52792947  0.28505461  0.29602091    -0.73700
O1547       O  0.96347952  0.25049388  0.29189035    -0.62300
O1548       O  0.52600204  0.28273665  0.04025917    -0.70700
O1549       O  0.53621622  0.24916856  0.04038481    -0.70300
O1550       O  0.97299135  0.21655409  0.29132453    -0.61500
O1551       O  0.53764268  0.25111056  0.29622007    -0.74000
O1552       O  0.97099998  0.21396669  0.03715801    -0.72800
Cu1553     Cu  0.99456423  0.26729189  0.00056104     1.04600
Cu1554     Cu  0.00486448  0.23107643  0.00046317     1.04300
C1555       C  0.95511781  0.22465606  0.04885604     0.93500
C1556       C  0.54373632  0.27397983  0.28502234     0.92600
C1557       C  0.95820142  0.22822550  0.27896708     0.84800
C1558       C  0.54146015  0.27174564  0.05244797     0.91100
O1559       O  0.71541174  0.25366029  0.29778348    -0.72700
O1560       O  0.73366592  0.21407813  0.04087152    -0.73700
O1561       O  0.71026670  0.25008800  0.04005086    -0.62300
O1562       O  0.73957926  0.21722566  0.29828444    -0.70700
O1563       O  0.78712830  0.25006245  0.30172050    -0.70300
O1564       O  0.75754539  0.28350374  0.04367380    -0.61500
O1565       O  0.78117831  0.24729658  0.04526425    -0.74000
O1566       O  0.76276632  0.28704121  0.30102920    -0.72800
Cu1567     Cu  0.72239837  0.23213392  0.00199784     1.04600
Cu1568     Cu  0.77316566  0.26761275  0.00593608     1.04300
C1569       C  0.73539856  0.27688102  0.28820031     0.93500
C1570       C  0.76031026  0.22466627  0.05559869     0.92600
C1571       C  0.72924989  0.27222214  0.05360001     0.84800
C1572       C  0.76788709  0.22772117  0.28857677     0.91100
O1573       O  0.72085035  0.46977378  0.03627609    -0.72700
O1574       O  0.74169495  0.02568834  0.29572461    -0.73700
O1575       O  0.72410403  0.47100759  0.29323710    -0.62300
O1576       O  0.74338574  0.02492292  0.03869651    -0.70700
O1577       O  0.79188933  0.03213990  0.03720665    -0.70300
O1578       O  0.77230876  0.47757134  0.29371219    -0.61500
O1579       O  0.79005813  0.03258813  0.29365236    -0.74000
O1580       O  0.76928480  0.47667957  0.03662753    -0.72800
Cu1581     Cu  0.73080144  0.99725724  0.99972969     1.04600
Cu1582     Cu  0.78257480  0.00466878  0.99896270     1.04300
C1583       C  0.74117447  0.46348234  0.04697775     0.93500
C1584       C  0.76900068  0.03818106  0.28315263     0.92600
C1585       C  0.74495067  0.46557426  0.28122327     0.84800
C1586       C  0.77147836  0.03805629  0.04894285     0.91100
C1587       C  0.81230321  0.10631462  0.09144510    -0.05500
C1588       C  0.79310275  0.10341275  0.12146493     0.00400
C1589       C  0.76564234  0.07889731  0.12613215    -0.08200
C1590       C  0.76032824  0.05799636  0.10250428    -0.05600
C1591       C  0.78035506  0.06072574  0.07374673     0.00400
C1592       C  0.80666492  0.08546784  0.06758390    -0.08100
C1593       C  0.82898218  0.09017478  0.03620451     0.62300
H1594       H  0.83306687  0.12490518  0.08792863     0.13000
H1595       H  0.73978635  0.03920098  0.10627061     0.13000
C1596       C  0.74001508  0.07324554  0.15344526     0.62500
F1597       F  0.85027623  0.11655654  0.03260609    -0.22600
F1598       F  0.81088273  0.08318221  0.33579126    -0.20000
F1599       F  0.84503887  0.07623310  0.04213897    -0.19600
F1600       F  0.74389931  0.09506249  0.17258512    -0.19700
F1601       F  0.73810721  0.05416088  0.17774052    -0.20000
F1602       F  0.71218717  0.06378517  0.13522579    -0.22700
C1603       C  0.77773624  0.09969968  0.23549902    -0.05500
C1604       C  0.79793695  0.10197276  0.20687977     0.00400
C1605       C  0.80763958  0.08229057  0.20289592    -0.08200
C1606       C  0.79660887  0.06145195  0.22798552    -0.05600
C1607       C  0.77663263  0.05945116  0.25645466     0.00400
C1608       C  0.76611795  0.07843975  0.25983089    -0.08100
C1609       C  0.74283194  0.07659691  0.28867732     0.62300
H1610       H  0.77027181  0.11460172  0.23794349     0.13000
H1611       H  0.80405089  0.04649898  0.22554193     0.13000
C1612       C  0.82988983  0.08168700  0.17451478     0.62500
F1613       F  0.73771125  0.09829715  0.28811627    -0.22600
F1614       F  0.75656378  0.07571292  0.99122063    -0.20000
F1615       F  0.71484289  0.05452050  0.28244516    -0.19600
F1616       F  0.85339338  0.07919174  0.19182484    -0.19700
F1617       F  0.84337563  0.10383274  0.15303071    -0.20000
F1618       F  0.81433199  0.06001022  0.15225751    -0.22700
C1619       C  0.89799519  0.21208189  0.20310001    -0.05500
C1620       C  0.88167292  0.18445100  0.20577773     0.00400
C1621       C  0.89256217  0.17182017  0.23092171    -0.08200
C1622       C  0.91782997  0.18715211  0.25320483    -0.05600
C1623       C  0.93326539  0.21461874  0.25159668     0.00400
C1624       C  0.92370636  0.22749850  0.22541208    -0.08100
C1625       C  0.94040444  0.25721389  0.22059579     0.62300
H1626       H  0.88981356  0.22170196  0.18417286     0.13000
H1627       H  0.92528149  0.17755188  0.27323876     0.13000
C1628       C  0.87928031  0.14229233  0.23351837     0.62500
F1629       F  0.93011345  0.26501987  0.19020883    -0.22600
F1630       F  0.97172332  0.26593205  0.21628862    -0.20000
F1631       F  0.93542705  0.26916963  0.25069314    -0.19600
F1632       F  0.87802403  0.13266360  0.19910181    -0.19700
F1633       F  0.85048203  0.13127463  0.24939828    -0.20000
F1634       F  0.89732824  0.13474530  0.25423433    -0.22700
C1635       C  0.89701554  0.17489275  0.11684082    -0.05500
C1636       C  0.87685641  0.18552367  0.12170580     0.00400
C1637       C  0.88246023  0.20880380  0.10267620    -0.08200
C1638       C  0.90867778  0.22102953  0.08032298    -0.05600
C1639       C  0.92885859  0.21035520  0.07479694     0.00400
C1640       C  0.92259276  0.18642483  0.09306818    -0.08100
C1641       C  0.94204101  0.17254707  0.08749414     0.62300
H1642       H  0.89190955  0.15687443  0.13125869     0.13000
H1643       H  0.91288788  0.23875623  0.06573783     0.13000
C1644       C  0.86052950  0.22042261  0.10446886     0.62500
F1645       F  0.93221524  0.15033389  0.10917343    -0.22600
F1646       F  0.97246032  0.18933604  0.09625117    -0.20000
F1647       F  0.93981291  0.16473418  0.38322835    -0.19600
F1648       F  0.87271333  0.24507840  0.08837825    -0.19700
F1649       F  0.85388196  0.22309824  0.14025747    -0.20000
F1650       F  0.83391032  0.20408969  0.08598550    -0.22700
C1651       C  0.75835495  0.18337667  0.07528398    -0.05800
C1652       C  0.76712343  0.20965198  0.08330553     0.00400
C1653       C  0.78097767  0.22022898  0.11722940    -0.08200
C1654       C  0.78852407  0.20465509  0.14042396    -0.05600
C1655       C  0.78159969  0.17863080  0.13140054     0.00400
C1656       C  0.76409953  0.16733714  0.09925122    -0.08100
C1657       C  0.75018110  0.13859443  0.08882229     0.62300
H1658       H  0.74664795  0.17514723  0.04977125     0.13000
H1659       H  0.80179729  0.21359504  0.16458251     0.13000
C1660       C  0.78766223  0.24767987  0.12901380     0.62500
F1661       F  0.74955114  0.12326535  0.11757257    -0.22600
F1662       F  0.76673246  0.13555980  0.06035249    -0.20000
F1663       F  0.71989873  0.12950800  0.07786188    -0.19600
F1664       F  0.76133533  0.25049506  0.12535680    -0.19700
F1665       F  0.81099143  0.26630314  0.10774268    -0.20000
F1666       F  0.79682792  0.25245207  0.16509025    -0.22700
C1667       C  0.75434862  0.19357360  0.24100644    -0.05500
C1668       C  0.77760125  0.21306401  0.26246608     0.00400
C1669       C  0.80798704  0.21597811  0.26049501    -0.08200
C1670       C  0.81364067  0.19941711  0.23686971    -0.05600
C1671       C  0.79024143  0.17976625  0.21584042     0.00400
C1672       C  0.75974376  0.17631371  0.21877374    -0.08100
C1673       C  0.73181347  0.15467048  0.20015567     0.62300
H1674       H  0.73109409  0.19114385  0.24236475     0.13000
H1675       H  0.83686398  0.20208372  0.23407662     0.13000
C1676       C  0.83445236  0.23600949  0.28327105     0.62500
F1677       F  0.73790517  0.13583622  0.18479597    -0.22600
F1678       F  0.72154473  0.16553353  0.17335934    -0.20000
F1679       F  0.70837245  0.14211323  0.22538563    -0.19600
F1680       F  0.82680224  0.23190604  0.31985451    -0.19700
F1681       F  0.84061744  0.26122595  0.27345692    -0.20000
F1682       F  0.86133065  0.23414000  0.27835237    -0.22700
C1683       C  0.58075442  0.31414778  0.07668647    -0.05500
C1684       C  0.56658725  0.28662045  0.07904323     0.00400
C1685       C  0.57618823  0.27494664  0.10671901    -0.08200
C1686       C  0.60025196  0.29154212  0.13025136    -0.05600
C1687       C  0.61601405  0.31914473  0.12620466     0.00400
C1688       C  0.60493206  0.33062525  0.09959516    -0.08100
C1689       C  0.61534913  0.35976499  0.09498292     0.62300
H1690       H  0.57289203  0.32321071  0.05621643     0.13000
H1691       H  0.60694856  0.28286710  0.15196290     0.13000
C1692       C  0.56117071  0.24527973  0.11173356     0.62500
F1693       F  0.59087125  0.36460862  0.10261425    -0.22600
F1694       F  0.62404348  0.36694979  0.05931866    -0.20000
F1695       F  0.63943238  0.37537811  0.11735719    -0.19600
F1696       F  0.56851950  0.23408422  0.08251083    -0.19700
F1697       F  0.52946266  0.23498018  0.11407362    -0.20000
F1698       F  0.57112297  0.23834188  0.14316849    -0.22700
C1699       C  0.62147488  0.30465334  0.23703833    -0.05500
C1700       C  0.61726285  0.32055072  0.21078668     0.00400
C1701       C  0.58798973  0.32014165  0.20954110    -0.08200
C1702       C  0.56424694  0.30290815  0.23234640    -0.05600
C1703       C  0.56906735  0.28801673  0.25897891     0.00400
C1704       C  0.59832583  0.28905636  0.26201007    -0.08100
C1705       C  0.60572634  0.27484287  0.29221993     0.62300
H1706       H  0.64335963  0.30461669  0.23835712     0.13000
H1707       H  0.54180439  0.30221864  0.23070050     0.13000
C1708       C  0.58012324  0.33830645  0.18778463     0.62500
F1709       F  0.63681145  0.28173578  0.29301709    -0.22600
F1710       F  0.58926468  0.24791474  0.28705190    -0.20000
F1711       F  0.59810608  0.28128499  0.32568552    -0.19600
F1712       F  0.55731063  0.32393413  0.16280086    -0.19700
F1713       F  0.60502342  0.35691855  0.16994828    -0.20000
F1714       F  0.56951368  0.35130829  0.21092722    -0.22700
C1715       C  0.73992048  0.30157991  0.10657122    -0.05500
C1716       C  0.71858290  0.28521269  0.08060857     0.00400
C1717       C  0.68865515  0.28311715  0.07966744    -0.08200
C1718       C  0.68153071  0.29775486  0.10473377    -0.05600
C1719       C  0.70299870  0.31471873  0.13018489     0.00400
C1720       C  0.73309165  0.31689419  0.13100208    -0.08100
C1721       C  0.75962780  0.33533954  0.15498918     0.62300
H1722       H  0.76277071  0.30305821  0.10710835     0.13000
H1723       H  0.65865771  0.29608691  0.10456736     0.13000
C1724       C  0.66436156  0.26630284  0.05190267     0.62500
F1725       F  0.76798416  0.32062464  0.17776981    -0.22600
F1726       F  0.75291754  0.35164621  0.17605248    -0.20000
F1727       F  0.78468987  0.35115787  0.13331825    -0.19600
F1728       F  0.65506225  0.23993952  0.05834197    -0.19700
F1729       F  0.67742651  0.27339627  0.35032304    -0.20000
F1730       F  0.63836721  0.26982038  0.05370747    -0.22700
C1731       C  0.70482043  0.27760372  0.23545819    -0.05500
C1732       C  0.72591921  0.29187861  0.26272285     0.00400
C1733       C  0.73383632  0.31877248  0.26776562    -0.08200
C1734       C  0.72115138  0.33049999  0.24409623    -0.05600
C1735       C  0.70090694  0.31650900  0.21562062     0.00400
C1736       C  0.69108544  0.28891690  0.21307899    -0.08100
C1737       C  0.66450475  0.26953090  0.19027630     0.62300
H1738       H  0.69772711  0.25675294  0.23268527     0.13000
H1739       H  0.72741099  0.35092026  0.24747918     0.13000
C1740       C  0.75494071  0.33496410  0.29845240     0.62500
F1741       F  0.64365080  0.24951613  0.21235700    -0.22600
F1742       F  0.67538334  0.25863597  0.16411826    -0.20000
F1743       F  0.64877407  0.28086193  0.17373981    -0.19600
F1744       F  0.73878383  0.31939114  0.99908547    -0.19700
F1745       F  0.75161769  0.35737091  0.97043715    -0.20000
F1746       F  0.78441064  0.33838473  0.29245270    -0.22700
C1747       C  0.69742837  0.39405558  0.08418927    -0.05500
C1748       C  0.71283225  0.39600986  0.11723205     0.00400
C1749       C  0.74195249  0.41879807  0.12209515    -0.08200
C1750       C  0.74982660  0.44089747  0.09967555    -0.05600
C1751       C  0.73157249  0.43984314  0.06991129     0.00400
C1752       C  0.70612144  0.41543681  0.06042514    -0.08100
C1753       C  0.68789027  0.41160886  0.02549184     0.62300
H1754       H  0.67739693  0.37597908  0.07726089     0.13000
H1755       H  0.77115821  0.45882365  0.10458354     0.13000
C1756       C  0.76749235  0.41980918  0.14581811     0.62500
F1757       F  0.66867867  0.42293894  0.02906635    -0.22600
F1758       F  0.67285684  0.38482314  0.34998995    -0.20000
F1759       F  0.70754752  0.42292897  0.99654261    -0.19600
F1760       F  0.75960037  0.39602150  0.16211680    -0.19700
F1761       F  0.77516559  0.43911769  0.17203231    -0.20000
F1762       F  0.79327309  0.42598143  0.12443549    -0.22700
C1763       C  0.73408008  0.40496734  0.22787321    -0.05500
C1764       C  0.71062061  0.40202716  0.20357832     0.00400
C1765       C  0.70076289  0.42168031  0.20326298    -0.08200
C1766       C  0.71413854  0.44275698  0.22782227    -0.05600
C1767       C  0.73655888  0.44497058  0.25292654     0.00400
C1768       C  0.74785683  0.42638647  0.25208034    -0.08100
C1769       C  0.77399057  0.42872959  0.27650479     0.62300
H1770       H  0.74203418  0.39048461  0.22719145     0.13000
H1771       H  0.70641172  0.45753976  0.22847868     0.13000
C1772       C  0.67437515  0.41969694  0.18015080     0.62500
F1773       F  0.78092618  0.40831560  0.27098760    -0.22600
F1774       F  0.76606646  0.42834416  0.31273377    -0.20000
F1775       F  0.80039637  0.45198045  0.26902003    -0.19600
F1776       F  0.64883071  0.39642085  0.18825324    -0.19700
F1777       F  0.68147540  0.42082233  0.14373492    -0.20000
F1778       F  0.66705922  0.43978936  0.18693855    -0.22700
C1779       C  0.67639574  0.34932662  0.53613007     0.45700
H1780       H  0.67620307  0.35123785  0.56623894    -0.03300
C1781       C  0.67705830  0.34546545  0.46612940     0.45800
H1782       H  0.67711485  0.34271260  0.43629608    -0.03300
C1783       C  0.68997419  0.33113636  0.52329842    -0.17000
C1784       C  0.64353063  0.33664889  0.51938057    -0.16800
C1785       C  0.69499006  0.37636757  0.51650226    -0.17100
C1786       C  0.69130167  0.33017685  0.48592485    -0.17100
C1787       C  0.64394580  0.33518933  0.48183881    -0.16700
C1788       C  0.69648859  0.37413673  0.47909017    -0.17000
C1789       C  0.82237749  0.15370808  0.53587026     0.45700
H1790       H  0.82387986  0.15324785  0.56600681    -0.03300
C1791       C  0.81846650  0.15559395  0.46578646     0.45800
H1792       H  0.81754648  0.15680061  0.43572948    -0.03300
C1793       C  0.80963697  0.12639525  0.51755043    -0.17000
C1794       C  0.80146195  0.16560479  0.52308646    -0.16800
C1795       C  0.85393063  0.17036376  0.51785414    -0.17100
C1796       C  0.80640819  0.12720076  0.48043896    -0.17100
C1797       C  0.79906868  0.16627282  0.48564905    -0.16700
C1798       C  0.85169785  0.17191804  0.48062596    -0.17000
O1799       O  0.96091805  0.24776864  0.36911947    -0.72700
O1800       O  0.52696901  0.28534937  0.62971093    -0.73700
O1801       O  0.96365348  0.25090307  0.62800527    -0.62300
O1802       O  0.52541883  0.28414465  0.37242590    -0.70700
O1803       O  0.53562543  0.25058832  0.37275268    -0.70300
O1804       O  0.97308861  0.21696095  0.62716704    -0.61500
O1805       O  0.53666085  0.25140932  0.62935748    -0.74000
O1806       O  0.97087134  0.21418399  0.36857515    -0.72800
Cu1807     Cu  0.99404303  0.26755583  0.33208491     1.04600
Cu1808     Cu  0.00450243  0.23141902  0.33170306     1.04300
C1809       C  0.95512260  0.22488584  0.38064307     0.93500
C1810       C  0.54265008  0.27427919  0.61825992     0.92600
C1811       C  0.95826825  0.22865102  0.61496334     0.84800
C1812       C  0.54093019  0.27320372  0.38466798     0.91100
O1813       O  0.71550423  0.25344530  0.63077902    -0.72700
O1814       O  0.73556237  0.21499245  0.37471923    -0.73700
O1815       O  0.71149883  0.25060819  0.37410385    -0.62300
O1816       O  0.73950954  0.21680982  0.63153290    -0.70700
O1817       O  0.78709426  0.24964567  0.63476570    -0.70300
O1818       O  0.75855426  0.28431515  0.37781670    -0.61500
O1819       O  0.78290408  0.24842698  0.37926579    -0.74000
O1820       O  0.76286273  0.28683358  0.63364313    -0.72800
Cu1821     Cu  0.72397150  0.23301411  0.33597961     1.04600
Cu1822     Cu  0.77459841  0.26864665  0.33995937     1.04300
C1823       C  0.73540080  0.27664955  0.62103165     0.93500
C1824       C  0.76221697  0.22567727  0.38945592     0.92600
C1825       C  0.73020202  0.27282726  0.38762190     0.84800
C1826       C  0.76783885  0.22721363  0.62191607     0.91100
O1827       O  0.72271376  0.46933731  0.36958569    -0.72700
O1828       O  0.74487454  0.02625133  0.62950697    -0.73700
O1829       O  0.72341223  0.47116646  0.62756372    -0.62300
O1830       O  0.74318228  0.02568619  0.37193289    -0.70700
O1831       O  0.79169002  0.03291485  0.37002441    -0.70300
O1832       O  0.77160628  0.47772770  0.62716181    -0.61500
O1833       O  0.79328089  0.03325335  0.62793186    -0.74000
O1834       O  0.77119394  0.47635875  0.37052343    -0.72800
Cu1835     Cu  0.73046621  0.99786099  0.33312013     1.04600
Cu1836     Cu  0.78228142  0.00535184  0.33207677     1.04300
C1837       C  0.74301315  0.46314340  0.38060701     0.93500
C1838       C  0.77227438  0.03887542  0.61727355     0.92600
C1839       C  0.74406810  0.46560436  0.61522880     0.84800
C1840       C  0.77135167  0.03885152  0.38190354     0.91100
C1841       C  0.81328141  0.10693065  0.42455106    -0.05500
C1842       C  0.79456846  0.10406135  0.45503579     0.00400
C1843       C  0.76690286  0.07974085  0.45983272    -0.08200
C1844       C  0.76103585  0.05883044  0.43600111    -0.05600
C1845       C  0.78051333  0.06154682  0.40664947     0.00400
C1846       C  0.80678075  0.08624265  0.40009376    -0.08100
C1847       C  0.82795313  0.09113782  0.36743910     0.62300
H1848       H  0.83416324  0.12540959  0.42086526     0.13000
H1849       H  0.74044236  0.04010468  0.43998496     0.13000
C1850       C  0.74155278  0.07442905  0.48740131     0.62500
F1851       F  0.84892725  0.11757675  0.36349671    -0.22600
F1852       F  0.81553332  0.08305681  0.67118826    -0.20000
F1853       F  0.84439055  0.07734395  0.37160409    -0.19600
F1854       F  0.74593473  0.09640493  0.50651853    -0.19700
F1855       F  0.73948319  0.05527831  0.51167543    -0.20000
F1856       F  0.71363964  0.06525222  0.46944324    -0.22700
C1857       C  0.77999014  0.10007441  0.56949181    -0.05500
C1858       C  0.79975346  0.10230678  0.54040312     0.00400
C1859       C  0.80980227  0.08284760  0.53635741    -0.08200
C1860       C  0.79935204  0.06214319  0.56169087    -0.05600
C1861       C  0.77986660  0.06024025  0.59069559     0.00400
C1862       C  0.76931477  0.07919156  0.59440828    -0.08100
C1863       C  0.74717459  0.07784750  0.62446712     0.62300
H1864       H  0.77232459  0.11483830  0.57207377     0.13000
H1865       H  0.80692862  0.04728778  0.55906987     0.13000
C1866       C  0.83205737  0.08255013  0.50776162     0.62500
F1867       F  0.74226693  0.09966066  0.62432579    -0.22600
F1868       F  0.75327988  0.07504452  0.32303342    -0.20000
F1869       F  0.71886888  0.05581689  0.61969976    -0.19600
F1870       F  0.85584904  0.08033374  0.52479457    -0.19700
F1871       F  0.84515566  0.10476157  0.48639521    -0.20000
F1872       F  0.81663111  0.06089523  0.48542630    -0.22700
C1873       C  0.89712745  0.21278483  0.54021715    -0.05500
C1874       C  0.88295197  0.18512504  0.54002842     0.00400
C1875       C  0.89531695  0.17251112  0.56307023    -0.08200
C1876       C  0.92020729  0.18779890  0.58588426    -0.05600
C1877       C  0.93352607  0.21524575  0.58722408     0.00400
C1878       C  0.92214319  0.22820693  0.56340813    -0.08100
C1879       C  0.93588694  0.25801309  0.56220929     0.62300
H1880       H  0.88758476  0.22231324  0.52309700     0.13000
H1881       H  0.92893891  0.17808203  0.60408884     0.13000
C1882       C  0.88350456  0.14311247  0.56334650     0.62500
F1883       F  0.92385317  0.26626123  0.53395016    -0.22600
F1884       F  0.96749766  0.26938210  0.55716746    -0.20000
F1885       F  0.92947858  0.26698601  0.59438374    -0.19600
F1886       F  0.88395288  0.13504203  0.52829051    -0.19700
F1887       F  0.85420469  0.13067981  0.57777911    -0.20000
F1888       F  0.90157179  0.13561253  0.58410620    -0.22700
C1889       C  0.89838777  0.17552565  0.45003964    -0.05500
C1890       C  0.87863507  0.18643796  0.45598264     0.00400
C1891       C  0.88427899  0.20992593  0.43751534    -0.08200
C1892       C  0.90995283  0.22190977  0.41433301    -0.05600
C1893       C  0.92956918  0.21085207  0.40750936     0.00400
C1894       C  0.92350097  0.18690658  0.42559896    -0.08100
C1895       C  0.94263978  0.17284101  0.41913857     0.62300
H1896       H  0.89321183  0.15732759  0.46395626     0.13000
H1897       H  0.91403716  0.23969352  0.39999167     0.13000
C1898       C  0.86257672  0.22173363  0.44001280     0.62500
F1899       F  0.93312391  0.15067025  0.44084151    -0.22600
F1900       F  0.97326564  0.18951218  0.42709223    -0.20000
F1901       F  0.94009484  0.16520593  0.71763521    -0.19600
F1902       F  0.87529642  0.24687019  0.42536755    -0.19700
F1903       F  0.85532118  0.22343562  0.47585828    -0.20000
F1904       F  0.83624550  0.20608821  0.42058588    -0.22700
C1905       C  0.76106115  0.18451017  0.40827210    -0.05800
C1906       C  0.76926452  0.21059393  0.41689680     0.00400
C1907       C  0.78272927  0.22085918  0.45111266    -0.08200
C1908       C  0.79008539  0.20510242  0.47421018    -0.05600
C1909       C  0.78352809  0.17923680  0.46474061     0.00400
C1910       C  0.76671998  0.16829389  0.43203385    -0.08100
C1911       C  0.75357263  0.13973915  0.42078124     0.62300
H1912       H  0.74985988  0.17658118  0.38241480     0.13000
H1913       H  0.80292447  0.21378187  0.49872604     0.13000
C1914       C  0.78923434  0.24818083  0.46331665     0.62500
F1915       F  0.75142502  0.12396088  0.44968711    -0.22600
F1916       F  0.77172641  0.13728302  0.39376259    -0.20000
F1917       F  0.72395529  0.13067265  0.40741073    -0.19600
F1918       F  0.76279435  0.25084857  0.45994638    -0.19700
F1919       F  0.81245516  0.26701462  0.44215556    -0.20000
F1920       F  0.79847260  0.25278028  0.49938509    -0.22700
C1921       C  0.75479380  0.19341877  0.57392645    -0.05500
C1922       C  0.77767852  0.21243527  0.59624041     0.00400
C1923       C  0.80784457  0.21482320  0.59550466    -0.08200
C1924       C  0.81381501  0.19852393  0.57177621    -0.05600
C1925       C  0.79089871  0.17952014  0.54953799     0.00400
C1926       C  0.76044481  0.17636192  0.55154339    -0.08100
C1927       C  0.73275036  0.15529757  0.53181793     0.62300
H1928       H  0.73164795  0.19127913  0.57460250     0.13000
H1929       H  0.83696967  0.20093895  0.56987044     0.13000
C1930       C  0.83371328  0.23393724  0.61984035     0.62500
F1931       F  0.73896515  0.13693032  0.51522833    -0.22600
F1932       F  0.72279806  0.16696251  0.50580126    -0.20000
F1933       F  0.70902379  0.14202575  0.55646261    -0.19600
F1934       F  0.82452657  0.22929132  0.65593922    -0.19700
F1935       F  0.84121533  0.25955722  0.61059728    -0.20000
F1936       F  0.86021807  0.23130090  0.61635482    -0.22700
C1937       C  0.58046843  0.31556992  0.40920763    -0.05500
C1938       C  0.56619146  0.28800913  0.41119552     0.00400
C1939       C  0.57624096  0.27609530  0.43808064    -0.08200
C1940       C  0.60030850  0.29243654  0.46170795    -0.05600
C1941       C  0.61587977  0.32003902  0.45841150     0.00400
C1942       C  0.60495121  0.33182735  0.43199393    -0.08100
C1943       C  0.61611874  0.36108871  0.42722939     0.62300
H1944       H  0.57256227  0.32480676  0.38904645     0.13000
H1945       H  0.60730949  0.28356555  0.48286346     0.13000
C1946       C  0.56179221  0.24639173  0.44213385     0.62500
F1947       F  0.59196032  0.36652853  0.43400992    -0.22600
F1948       F  0.62559765  0.36820295  0.39172673    -0.20000
F1949       F  0.63992546  0.37633049  0.45016995    -0.19600
F1950       F  0.56883254  0.23583307  0.41193785    -0.19700
F1951       F  0.53011256  0.23572476  0.44552732    -0.20000
F1952       F  0.57260159  0.23915694  0.47258649    -0.22700
C1953       C  0.61991441  0.30435751  0.56928824    -0.05500
C1954       C  0.61588076  0.32044700  0.54320012     0.00400
C1955       C  0.58661845  0.32014357  0.54201924    -0.08200
C1956       C  0.56299086  0.30321135  0.56531674    -0.05600
C1957       C  0.56780717  0.28827841  0.59192394     0.00400
C1958       C  0.59688126  0.28892934  0.59443253    -0.08100
C1959       C  0.60425789  0.27444137  0.62428391     0.62300
H1960       H  0.64163635  0.30403462  0.57038155     0.13000
H1961       H  0.54060853  0.30265438  0.56391374     0.13000
C1962       C  0.57848519  0.33788548  0.51957919     0.62500
F1963       F  0.63523122  0.28092852  0.62457426    -0.22600
F1964       F  0.58736616  0.24754988  0.61903319    -0.20000
F1965       F  0.59716311  0.28097693  0.65798868    -0.19600
F1966       F  0.55570859  0.32302614  0.49480697    -0.19700
F1967       F  0.60322466  0.35640536  0.50137774    -0.20000
F1968       F  0.56765087  0.35103117  0.54213870    -0.22700
C1969       C  0.74000590  0.30200365  0.44067134    -0.05500
C1970       C  0.71904961  0.28560266  0.41445353     0.00400
C1971       C  0.68894689  0.28317082  0.41318824    -0.08200
C1972       C  0.68126581  0.29747853  0.43827520    -0.05600
C1973       C  0.70235697  0.31443054  0.46404133     0.00400
C1974       C  0.73262819  0.31699042  0.46508110    -0.08100
C1975       C  0.75884185  0.33558891  0.48929003     0.62300
H1976       H  0.76298866  0.30377143  0.44143924     0.13000
H1977       H  0.65830955  0.29563298  0.43780855     0.13000
C1978       C  0.66508602  0.26639586  0.38498316     0.62500
F1979       F  0.76741805  0.32105200  0.51212539    -0.22600
F1980       F  0.75159538  0.35158030  0.51029051    -0.20000
F1981       F  0.78390599  0.35172393  0.46784203    -0.19600
F1982       F  0.65601650  0.24003789  0.39112850    -0.19700
F1983       F  0.67916561  0.27461535  0.68218590    -0.20000
F1984       F  0.63888059  0.26961770  0.38642909    -0.22700
C1985       C  0.70405190  0.27712720  0.56887562    -0.05500
C1986       C  0.72559513  0.29155652  0.59570099     0.00400
C1987       C  0.73353042  0.31847665  0.60059647    -0.08200
C1988       C  0.72017747  0.32996503  0.57748200    -0.05600
C1989       C  0.69960184  0.31585671  0.54934684     0.00400
C1990       C  0.68998069  0.28830473  0.54674835    -0.08100
C1991       C  0.66338882  0.26884432  0.52401184     0.62300
H1992       H  0.69698668  0.25627693  0.56615379     0.13000
H1993       H  0.72633589  0.35038208  0.58084472     0.13000
C1994       C  0.75551122  0.33500776  0.63041011     0.62500
F1995       F  0.64265219  0.24881353  0.54616618    -0.22600
F1996       F  0.67430329  0.25798574  0.49783926    -0.20000
F1997       F  0.64753257  0.28007436  0.50745495    -0.19600
F1998       F  0.74393035  0.32230762  0.33141986    -0.19700
F1999       F  0.75672623  0.35962256  0.30097517    -0.20000
F2000       F  0.78470213  0.33807077  0.62343231    -0.22700
C2001       C  0.69842294  0.39408523  0.41822741    -0.05500
C2002       C  0.71328977  0.39606405  0.45170106     0.00400
C2003       C  0.74237917  0.41886596  0.45700550    -0.08200
C2004       C  0.75074364  0.44085216  0.43421411    -0.05600
C2005       C  0.73319162  0.43961391  0.40368482     0.00400
C2006       C  0.70784654  0.41524726  0.39399472    -0.08100
C2007       C  0.69054003  0.41123879  0.35828213     0.62300
H2008       H  0.67826151  0.37616129  0.41116132     0.13000
H2009       H  0.77193771  0.45882864  0.43945467     0.13000
C2010       C  0.76747304  0.42013274  0.48175952     0.62500
F2011       F  0.67140018  0.42272754  0.36032126    -0.22600
F2012       F  0.67327353  0.38574300  0.68348504    -0.20000
F2013       F  0.71101283  0.42228461  0.32991930    -0.19600
F2014       F  0.75955543  0.39637513  0.49810420    -0.19700
F2015       F  0.77419747  0.43934641  0.50789981    -0.20000
F2016       F  0.79387206  0.42666069  0.46140362    -0.22700
C2017       C  0.73312499  0.40462662  0.56261591    -0.05500
C2018       C  0.70968541  0.40149097  0.53817786     0.00400
C2019       C  0.69935780  0.42082311  0.53800442    -0.08200
C2020       C  0.71227382  0.44183049  0.56275107    -0.05600
C2021       C  0.73527385  0.44461878  0.58736748     0.00400
C2022       C  0.74703756  0.42633860  0.58633855    -0.08100
C2023       C  0.77414265  0.42952832  0.60964408     0.62300
H2024       H  0.74128737  0.39026806  0.56206865     0.13000
H2025       H  0.70408329  0.45631009  0.56350990     0.13000
C2026       C  0.67323543  0.41865891  0.51429893     0.62500
F2027       F  0.78137691  0.40928237  0.60416168    -0.22600
F2028       F  0.76748209  0.42979209  0.64618828    -0.20000
F2029       F  0.79998755  0.45281644  0.60064573    -0.19600
F2030       F  0.64812526  0.39473697  0.52079094    -0.19700
F2031       F  0.68154251  0.42106332  0.47812674    -0.20000
F2032       F  0.66465417  0.43789971  0.52180500    -0.22700
C2033       C  0.67656444  0.34913699  0.86901265     0.45700
H2034       H  0.67630584  0.35088018  0.89914146    -0.03300
C2035       C  0.67729295  0.34567082  0.79897450     0.45800
H2036       H  0.67734530  0.34310396  0.76910873    -0.03300
C2037       C  0.69056755  0.33134264  0.85584474    -0.17000
C2038       C  0.64373163  0.33605979  0.85241465    -0.16800
C2039       C  0.69464553  0.37633863  0.84956220    -0.17100
C2040       C  0.69200554  0.33064613  0.81845436    -0.17100
C2041       C  0.64411396  0.33482301  0.81485062    -0.16700
C2042       C  0.69637302  0.37431611  0.81219024    -0.17000
C2043       C  0.82160003  0.15325283  0.86964122     0.45700
H2044       H  0.82291457  0.15275823  0.89978604    -0.03300
C2045       C  0.81805388  0.15528216  0.79951566     0.45800
H2046       H  0.81726768  0.15650237  0.76943667    -0.03300
C2047       C  0.80887690  0.12596436  0.85126184    -0.17000
C2048       C  0.80082542  0.16524539  0.85667997    -0.16800
C2049       C  0.85326403  0.16985147  0.85182691    -0.17100
C2050       C  0.80593680  0.12686585  0.81411165    -0.17100
C2051       C  0.79860489  0.16598714  0.81922563    -0.16700
C2052       C  0.85119550  0.17153041  0.81459271    -0.17000
O2053       O  0.96158562  0.24835134  0.70508721    -0.72700
O2054       O  0.52820117  0.28420143  0.96368413    -0.73700
O2055       O  0.96397869  0.25017626  0.96064338    -0.62300
O2056       O  0.52513419  0.28406091  0.70625203    -0.70700
O2057       O  0.53533777  0.25048527  0.70604751    -0.70300
O2058       O  0.97336178  0.21619564  0.96004223    -0.61500
O2059       O  0.53783239  0.25022694  0.96341733    -0.74000
O2060       O  0.97140470  0.21469691  0.70430049    -0.72800
Cu2061     Cu  0.99451004  0.26799736  0.66776747     1.04600
Cu2062     Cu  0.00481243  0.23178001  0.66727651     1.04300
C2063       C  0.95567160  0.22539069  0.71640016     0.93500
C2064       C  0.54377405  0.27306236  0.95213118     0.92600
C2065       C  0.95854983  0.22787564  0.94776583     0.84800
C2066       C  0.54067946  0.27306730  0.71818130     0.91100
O2067       O  0.71404523  0.25276945  0.96365271    -0.72700
O2068       O  0.73566680  0.21499704  0.70795523    -0.73700
O2069       O  0.71208356  0.25092727  0.70710546    -0.62300
O2070       O  0.73790650  0.21602853  0.96449347    -0.70700
O2071       O  0.78547815  0.24887156  0.96796372    -0.70300
O2072       O  0.75923722  0.28454740  0.71043822    -0.61500
O2073       O  0.78310393  0.24832476  0.71228478    -0.74000
O2074       O  0.76146238  0.28609537  0.96699180    -0.72800
Cu2075     Cu  0.72414761  0.23294478  0.66910474     1.04600
Cu2076     Cu  0.77484445  0.26851554  0.67274969     1.04300
C2077       C  0.73409542  0.27597769  0.95415130     0.93500
C2078       C  0.76233432  0.22563560  0.72263012     0.92600
C2079       C  0.73093006  0.27321598  0.72034247     0.84800
C2080       C  0.76628900  0.22644534  0.95507114     0.91100
O2081       O  0.72327889  0.47024842  0.70403053    -0.72700
O2082       O  0.74231752  0.02529231  0.96251496    -0.73700
O2083       O  0.72158922  0.47121382  0.95989010    -0.62300
O2084       O  0.74550560  0.02566658  0.70561682    -0.70700
O2085       O  0.79399562  0.03282076  0.70450930    -0.70300
O2086       O  0.76975824  0.47764291  0.96003867    -0.61500
O2087       O  0.79066570  0.03213234  0.96074929    -0.74000
O2088       O  0.77166602  0.47704676  0.70405327    -0.72800
Cu2089     Cu  0.73318322  0.99818139  0.66656540     1.04600
Cu2090     Cu  0.78495542  0.00557169  0.66609697     1.04300
C2091       C  0.74360161  0.46394348  0.71463077     0.93500
C2092       C  0.76971621  0.03784553  0.95021098     0.92600
C2093       C  0.74227798  0.46554451  0.94799602     0.84800
C2094       C  0.77353326  0.03871688  0.71609130     0.91100
C2095       C  0.81412322  0.10681024  0.75884773    -0.05500
C2096       C  0.79467175  0.10382740  0.78861671     0.00400
C2097       C  0.76714917  0.07936342  0.79303020    -0.08200
C2098       C  0.76201077  0.05850023  0.76945907    -0.05600
C2099       C  0.78227735  0.06128621  0.74095367     0.00400
C2100       C  0.80865613  0.08601685  0.73500010    -0.08100
C2101       C  0.83117199  0.09077691  0.70382249     0.62300
H2102       H  0.83492115  0.12540383  0.75554658     0.13000
H2103       H  0.74141462  0.03971640  0.77303044     0.13000
C2104       C  0.74131644  0.07380434  0.81999924     0.62500
F2105       F  0.85264111  0.11713485  0.70054668    -0.22600
F2106       F  0.81313994  0.08221283  0.00372930    -0.20000
F2107       F  0.84703306  0.07667162  0.70977893    -0.19600
F2108       F  0.74514139  0.09568852  0.83895650    -0.19700
F2109       F  0.73913529  0.05472381  0.84447405    -0.20000
F2110       F  0.71365008  0.06438775  0.80144244    -0.22700
C2111       C  0.77861319  0.09956411  0.90285476    -0.05500
C2112       C  0.79864466  0.10179498  0.87405026     0.00400
C2113       C  0.80836600  0.08211526  0.87005151    -0.08200
C2114       C  0.79725504  0.06118613  0.89501562    -0.05600
C2115       C  0.77753534  0.05928593  0.92372752     0.00400
C2116       C  0.76740688  0.07849969  0.92752533    -0.08100
C2117       C  0.74519223  0.07723579  0.95743068     0.62300
H2118       H  0.77117076  0.11447257  0.90540966     0.13000
H2119       H  0.80456160  0.04615682  0.89239158     0.13000
C2120       C  0.83086718  0.08169654  0.84190838     0.62500
F2121       F  0.74068134  0.09925324  0.95742266    -0.22600
F2122       F  0.75888440  0.07667079  0.65818684    -0.20000
F2123       F  0.71676325  0.05541353  0.95231889    -0.19600
F2124       F  0.85427562  0.07919060  0.85943829    -0.19700
F2125       F  0.84445829  0.10395092  0.82069719    -0.20000
F2126       F  0.81555080  0.06012996  0.81939383    -0.22700
C2127       C  0.89717480  0.21207063  0.87346521    -0.05500
C2128       C  0.88230875  0.18440245  0.87404541     0.00400
C2129       C  0.89431639  0.17167328  0.89744205    -0.08200
C2130       C  0.91959075  0.18691859  0.91979790    -0.05600
C2131       C  0.93361831  0.21440938  0.92030005     0.00400
C2132       C  0.92257074  0.22743056  0.89615647    -0.08100
C2133       C  0.93704290  0.25725926  0.89415009     0.62300
H2134       H  0.88793997  0.22170092  0.85606612     0.13000
H2135       H  0.92810092  0.17718378  0.93827946     0.13000
C2136       C  0.88189758  0.14220366  0.89835015     0.62500
F2137       F  0.92552541  0.26547572  0.86532788    -0.22600
F2138       F  0.96862907  0.26802568  0.88937308    -0.20000
F2139       F  0.93082113  0.26687222  0.92586160    -0.19600
F2140       F  0.88209959  0.13374921  0.86348454    -0.19700
F2141       F  0.85260662  0.13025186  0.91287140    -0.20000
F2142       F  0.89967631  0.13452664  0.91934845    -0.22700
C2143       C  0.89808225  0.17530726  0.78437805    -0.05500
C2144       C  0.87825935  0.18616043  0.79019379     0.00400
C2145       C  0.88411035  0.20982921  0.77209135    -0.08200
C2146       C  0.91017774  0.22214118  0.74957602    -0.05600
C2147       C  0.92987540  0.21115276  0.74286757     0.00400
C2148       C  0.92348372  0.18693584  0.76038935    -0.08100
C2149       C  0.94255311  0.17282572  0.75374538     0.62300
H2150       H  0.89275041  0.15698169  0.79804901     0.13000
H2151       H  0.91450095  0.24011371  0.73559506     0.13000
C2152       C  0.86226677  0.22151103  0.77430737     0.62500
F2153       F  0.93264771  0.15033420  0.77485242    -0.22600
F2154       F  0.97311565  0.18927333  0.76230056    -0.20000
F2155       F  0.93999827  0.16453136  0.05161285    -0.19600
F2156       F  0.87492116  0.24664250  0.75965431    -0.19700
F2157       F  0.85476305  0.22314885  0.81007838    -0.20000
F2158       F  0.83609596  0.20579643  0.75467125    -0.22700
C2159       C  0.76121752  0.18447737  0.74140842    -0.05800
C2160       C  0.76926007  0.21051018  0.75014016     0.00400
C2161       C  0.78223183  0.22060493  0.78460167    -0.08200
C2162       C  0.78953254  0.20482534  0.80775719    -0.05600
C2163       C  0.78316428  0.17900837  0.79818691     0.00400
C2164       C  0.76662737  0.16817656  0.76528379    -0.08100
C2165       C  0.75342405  0.13964909  0.75389635     0.62300
H2166       H  0.75024180  0.17662005  0.71541964     0.13000
H2167       H  0.80209942  0.21343343  0.83245573     0.13000
C2168       C  0.78807579  0.24770318  0.79705125     0.62500
F2169       F  0.75171187  0.12379673  0.78251053    -0.22600
F2170       F  0.77125690  0.13731719  0.72635855    -0.20000
F2171       F  0.72362163  0.13057596  0.74114985    -0.19600
F2172       F  0.76131564  0.24986914  0.79359730    -0.19700
F2173       F  0.81114031  0.26688547  0.77612250    -0.20000
F2174       F  0.79710968  0.25222822  0.83318979    -0.22700
C2175       C  0.75365480  0.19274438  0.90705082    -0.05500
C2176       C  0.77633223  0.21171089  0.92960336     0.00400
C2177       C  0.80651464  0.21411394  0.92929977    -0.08200
C2178       C  0.81275277  0.19795427  0.90559808    -0.05600
C2179       C  0.79004048  0.17902422  0.88307162     0.00400
C2180       C  0.75954105  0.17577888  0.88476661    -0.08100
C2181       C  0.73204150  0.15471124  0.86476825     0.62300
H2182       H  0.73049130  0.19057252  0.90745686     0.13000
H2183       H  0.83595463  0.20042937  0.90393148     0.13000
C2184       C  0.83210617  0.23309174  0.95408127     0.62500
F2185       F  0.73844304  0.13637674  0.84838572    -0.22600
F2186       F  0.72228626  0.16638162  0.83854069    -0.20000
F2187       F  0.70811121  0.14139498  0.88914981    -0.19600
F2188       F  0.82246012  0.22832112  0.99002278    -0.19700
F2189       F  0.83981291  0.25877001  0.94492315    -0.20000
F2190       F  0.85860275  0.23039340  0.95110582    -0.22700
C2191       C  0.58068090  0.31533698  0.74227572    -0.05500
C2192       C  0.56602208  0.28779645  0.74460687     0.00400
C2193       C  0.57557463  0.27583461  0.77193730    -0.08200
C2194       C  0.60002627  0.29208404  0.79519603    -0.05600
C2195       C  0.61602509  0.31966859  0.79147971     0.00400
C2196       C  0.60519932  0.33151801  0.76504502    -0.08100
C2197       C  0.61640468  0.36078174  0.76038477     0.62300
H2198       H  0.57294933  0.32461101  0.72196788     0.13000
H2199       H  0.60687231  0.28315617  0.81647897     0.13000
C2200       C  0.56000331  0.24617971  0.77696781     0.62500
F2201       F  0.59235020  0.36626877  0.76760563    -0.22600
F2202       F  0.62564254  0.36791325  0.72481104    -0.20000
F2203       F  0.64037807  0.37597487  0.78308883    -0.19600
F2204       F  0.56697291  0.23473787  0.74772959    -0.19700
F2205       F  0.52839224  0.23642001  0.77937965    -0.20000
F2206       F  0.56967646  0.23900048  0.80840548    -0.22700
C2207       C  0.62068762  0.30345714  0.90222495    -0.05500
C2208       C  0.61629178  0.31947505  0.87631957     0.00400
C2209       C  0.58690538  0.31888429  0.87541768    -0.08200
C2210       C  0.56345139  0.30171775  0.89874885    -0.05600
C2211       C  0.56865374  0.28697082  0.92535989     0.00400
C2212       C  0.59789502  0.28791886  0.92758314    -0.08100
C2213       C  0.60572720  0.27373864  0.95744972     0.62300
H2214       H  0.64253812  0.30337445  0.90311154     0.13000
H2215       H  0.54095905  0.30095534  0.89752684     0.13000
C2216       C  0.57861488  0.33668466  0.85332029     0.62500
F2217       F  0.63677200  0.28045766  0.95739582    -0.22600
F2218       F  0.58900882  0.24679795  0.95255778    -0.20000
F2219       F  0.59881680  0.28039763  0.99117512    -0.19600
F2220       F  0.55605719  0.32194328  0.82826586    -0.19700
F2221       F  0.60336318  0.35556773  0.83545931    -0.20000
F2222       F  0.56742765  0.34941035  0.87615919    -0.22700
C2223       C  0.74089609  0.30265490  0.77314963    -0.05500
C2224       C  0.71995858  0.28627520  0.74688379     0.00400
C2225       C  0.69001729  0.28412612  0.74521929    -0.08200
C2226       C  0.68231215  0.29842912  0.77024408    -0.05600
C2227       C  0.70326233  0.31516795  0.79630404     0.00400
C2228       C  0.73350152  0.31766013  0.79752429    -0.08100
C2229       C  0.75966646  0.33622550  0.82184401     0.62300
H2230       H  0.76382976  0.30432423  0.77405653     0.13000
H2231       H  0.65937171  0.29662209  0.76961824     0.13000
C2232       C  0.66635811  0.26764913  0.71664360     0.62500
F2233       F  0.76861932  0.32169055  0.84418629    -0.22600
F2234       F  0.75220699  0.35184130  0.84340387    -0.20000
F2235       F  0.78455139  0.35271666  0.80041260    -0.19600
F2236       F  0.65673312  0.24119349  0.72274721    -0.19700
F2237       F  0.67629503  0.27296551  0.01702714    -0.20000
F2238       F  0.64043736  0.27130306  0.71756231    -0.22700
C2239       C  0.70450090  0.27704773  0.90062410    -0.05500
C2240       C  0.72468594  0.29104323  0.92879602     0.00400
C2241       C  0.73152838  0.31757503  0.93493004    -0.08200
C2242       C  0.71916626  0.32944213  0.91108539    -0.05600
C2243       C  0.69989721  0.31580076  0.88171324     0.00400
C2244       C  0.69071440  0.28836373  0.87831403    -0.08100
C2245       C  0.66462209  0.26906036  0.85479492     0.62300
H2246       H  0.69803454  0.25636541  0.89718603     0.13000
H2247       H  0.72477802  0.34961019  0.91517618     0.13000
C2248       C  0.75092671  0.33315483  0.96711016     0.62500
F2249       F  0.64383543  0.24850668  0.87620523    -0.22600
F2250       F  0.67620056  0.25888813  0.82843043    -0.20000
F2251       F  0.64856884  0.28021975  0.83847303    -0.19600
F2252       F  0.74526101  0.32289122  0.66384901    -0.19700
F2253       F  0.75770067  0.35982911  0.63255347    -0.20000
F2254       F  0.78093716  0.33751557  0.96277569    -0.22700
C2255       C  0.69900135  0.39461830  0.75148399    -0.05500
C2256       C  0.71349294  0.39641825  0.78514370     0.00400
C2257       C  0.74251814  0.41922906  0.79095628    -0.08200
C2258       C  0.75115268  0.44133965  0.76824391    -0.05600
C2259       C  0.73380897  0.44028659  0.73755844     0.00400
C2260       C  0.70854262  0.41594425  0.72754970    -0.08100
C2261       C  0.69157480  0.41209524  0.69163819     0.62300
H2262       H  0.67897793  0.37670445  0.74405858     0.13000
H2263       H  0.77227687  0.45929971  0.77379491     0.13000
C2264       C  0.76716780  0.42047650  0.81651463     0.62500
F2265       F  0.67308391  0.42422049  0.69299794    -0.22600
F2266       F  0.67018119  0.38525274  0.01693954    -0.20000
F2267       F  0.71242181  0.42261235  0.66356439    -0.19600
F2268       F  0.75902265  0.39669804  0.83297682    -0.19700
F2269       F  0.77333929  0.43961103  0.84263314    -0.20000
F2270       F  0.79395623  0.42710142  0.79692272    -0.22700
C2271       C  0.73127869  0.40409482  0.89704921    -0.05500
C2272       C  0.70884304  0.40140337  0.87135351     0.00400
C2273       C  0.69914684  0.42116010  0.86994053    -0.08200
C2274       C  0.71168902  0.44211605  0.89476734    -0.05600
C2275       C  0.73367290  0.44443738  0.92054892     0.00400
C2276       C  0.74468702  0.42566394  0.92101126    -0.08100
C2277       C  0.77047895  0.42817129  0.94620868     0.62300
H2278       H  0.73909945  0.38956812  0.89726673     0.13000
H2279       H  0.70417017  0.45703761  0.89448896     0.13000
C2280       C  0.67422859  0.41977079  0.84467159     0.62500
F2281       F  0.77662814  0.40716653  0.94262283    -0.22600
F2282       F  0.76267260  0.42914474  0.98216027    -0.20000
F2283       F  0.79729054  0.45084284  0.93777719    -0.19600
F2284       F  0.64922386  0.39540099  0.84790894    -0.19700
F2285       F  0.68466489  0.42431527  0.80922750    -0.20000
F2286       F  0.66445745  0.43811653  0.85317758    -0.22700
C2287       C  0.67635492  0.84908089  0.20295690     0.45700
H2288       H  0.67628037  0.85091931  0.23308276    -0.03300
C2289       C  0.67664154  0.84539022  0.13292956     0.45800
H2290       H  0.67654558  0.84274129  0.10306689    -0.03300
C2291       C  0.69033295  0.83128663  0.18972500    -0.17000
C2292       C  0.64339671  0.83588377  0.18659425    -0.16800
C2293       C  0.69432682  0.87623648  0.18334262    -0.17100
C2294       C  0.69152731  0.83047442  0.15232381    -0.17100
C2295       C  0.64355357  0.83455206  0.14901864    -0.16700
C2296       C  0.69572067  0.87407117  0.14593837    -0.17000
C2297       C  0.82145269  0.65325046  0.20277919     0.45700
H2298       H  0.82316310  0.65284578  0.23290030    -0.03300
C2299       C  0.81719401  0.65495798  0.13270254     0.45800
H2300       H  0.81606068  0.65599136  0.10264914    -0.03300
C2301       C  0.80868362  0.62590395  0.18454677    -0.17000
C2302       C  0.80039858  0.66505913  0.19015818    -0.16800
C2303       C  0.85288122  0.66987878  0.18447838    -0.17100
C2304       C  0.80532244  0.62661904  0.14744121    -0.17100
C2305       C  0.79786543  0.66566338  0.15272590    -0.16700
C2306       C  0.85048388  0.67133584  0.14727944    -0.17000
O2307       O  0.96215970  0.74809816  0.03937086    -0.72700
O2308       O  0.52853772  0.78408086  0.29836911    -0.73700
O2309       O  0.96393495  0.75101221  0.29253994    -0.62300
O2310       O  0.52520296  0.78396521  0.03915681    -0.70700
O2311       O  0.53543510  0.75041396  0.03906862    -0.70300
O2312       O  0.97329497  0.71703720  0.29174257    -0.61500
O2313       O  0.53822087  0.75013033  0.29846126    -0.74000
O2314       O  0.97157483  0.71419966  0.03848134    -0.72800
Cu2315     Cu  0.99491567  0.76752216  0.00195168     1.04600
Cu2316     Cu  0.00496680  0.73115979  0.00131763     1.04300
C2317       C  0.95597361  0.72504762  0.05051471     0.93500
C2318       C  0.54407944  0.77288655  0.28691916     0.92600
C2319       C  0.95849280  0.72874360  0.27952627     0.84800
C2320       C  0.54068086  0.77296200  0.05128678     0.91100
O2321       O  0.71359214  0.75256353  0.29764281    -0.72700
O2322       O  0.73455083  0.71452630  0.04178406    -0.73700
O2323       O  0.71096535  0.75049255  0.04073271    -0.62300
O2324       O  0.73728086  0.71560922  0.29862171    -0.70700
O2325       O  0.78488579  0.74839302  0.30203175    -0.70300
O2326       O  0.75815949  0.78405360  0.04404082    -0.61500
O2327       O  0.78199404  0.74783665  0.04599401    -0.74000
O2328       O  0.76106839  0.78579147  0.30094079    -0.72800
Cu2329     Cu  0.72301360  0.73240480  0.00278330     1.04600
Cu2330     Cu  0.77370608  0.76797757  0.00641063     1.04300
C2331       C  0.73370451  0.77575196  0.28810772     0.93500
C2332       C  0.76123424  0.72517515  0.05643866     0.92600
C2333       C  0.72986548  0.77277125  0.05397408     0.84800
C2334       C  0.76566249  0.72596310  0.28917394     0.91100
O2335       O  0.72180372  0.96932558  0.03668083    -0.72700
O2336       O  0.74367605  0.52552594  0.29591094    -0.73700
O2337       O  0.72211378  0.97110476  0.29382954    -0.62300
O2338       O  0.74283718  0.52553290  0.03836318    -0.70700
O2339       O  0.79127153  0.53256909  0.03661628    -0.70300
O2340       O  0.77035542  0.97772117  0.29374209    -0.61500
O2341       O  0.79209299  0.53252058  0.29438744    -0.74000
O2342       O  0.77022964  0.97621436  0.03708462    -0.72800
Cu2343     Cu  0.73005481  0.49786221  0.99931329     1.04600
Cu2344     Cu  0.78177712  0.50512770  0.99847774     1.04300
C2345       C  0.74212115  0.96306137  0.04743471     0.93500
C2346       C  0.77110984  0.53817996  0.28379093     0.92600
C2347       C  0.74284957  0.96554032  0.28177267     0.84800
C2348       C  0.77097313  0.53854017  0.04852924     0.91100
C2349       C  0.81265725  0.60645329  0.09171089    -0.05500
C2350       C  0.79373313  0.60348346  0.12203451     0.00400
C2351       C  0.76618053  0.57906935  0.12672652    -0.08200
C2352       C  0.76048660  0.55825189  0.10278731    -0.05600
C2353       C  0.78011622  0.56109224  0.07354565     0.00400
C2354       C  0.80647004  0.58578851  0.06731741    -0.08100
C2355       C  0.82811305  0.59067634  0.03514409     0.62300
H2356       H  0.83350046  0.62498436  0.08818003     0.13000
H2357       H  0.73991306  0.53948777  0.10660889     0.13000
C2358       C  0.74080575  0.57354293  0.15434390     0.62500
F2359       F  0.84939164  0.61706753  0.03161181    -0.22600
F2360       F  0.81423653  0.58215748  0.33737175    -0.20000
F2361       F  0.84422253  0.57663960  0.03976426    -0.19600
F2362       F  0.74496038  0.59544227  0.17349856    -0.19700
F2363       F  0.73900788  0.55446306  0.17857743    -0.20000
F2364       F  0.71284261  0.56415472  0.13644755    -0.22700
C2365       C  0.77924034  0.59967521  0.23663852    -0.05500
C2366       C  0.79892846  0.60187952  0.20747017     0.00400
C2367       C  0.80890555  0.58238304  0.20331021    -0.08200
C2368       C  0.79833144  0.56159543  0.22847656    -0.05600
C2369       C  0.77881951  0.55965473  0.25744559     0.00400
C2370       C  0.76848376  0.57872198  0.26143870    -0.08100
C2371       C  0.74641664  0.57737216  0.29159864     0.62300
H2372       H  0.77163391  0.61447129  0.23932523     0.13000
H2373       H  0.80581519  0.54668623  0.22573575     0.13000
C2374       C  0.83119297  0.58209332  0.17477090     0.62500
F2375       F  0.74191798  0.59939433  0.29191956    -0.22600
F2376       F  0.75423364  0.57558611  0.98947297    -0.20000
F2377       F  0.71796059  0.55556982  0.28654514    -0.19600
F2378       F  0.85499733  0.57993598  0.19186975    -0.19700
F2379       F  0.84425303  0.60427694  0.15337446    -0.20000
F2380       F  0.81581827  0.56040853  0.15246970    -0.22700
C2381       C  0.89594586  0.71242353  0.20640068    -0.05500
C2382       C  0.88207495  0.68477946  0.20623529     0.00400
C2383       C  0.89510951  0.67234278  0.22856693    -0.08200
C2384       C  0.92049490  0.68780996  0.25060174    -0.05600
C2385       C  0.93352853  0.71523981  0.25204469     0.00400
C2386       C  0.92137400  0.72801229  0.22896851    -0.08100
C2387       C  0.93465629  0.75777524  0.22799284     0.62300
H2388       H  0.88581806  0.72176403  0.18975403     0.13000
H2389       H  0.92981296  0.67823236  0.26820795     0.13000
C2390       C  0.88342812  0.64295350  0.22898393     0.62500
F2391       F  0.92194893  0.76585903  0.20027396    -0.22600
F2392       F  0.96620821  0.76949900  0.22225184    -0.20000
F2393       F  0.92852037  0.76650668  0.26054441    -0.19600
F2394       F  0.88380516  0.63479347  0.19398530    -0.19700
F2395       F  0.85417342  0.63046863  0.24353231    -0.20000
F2396       F  0.90162654  0.63557212  0.24969709    -0.22700
C2397       C  0.89813189  0.67551947  0.11860927    -0.05500
C2398       C  0.87747171  0.68571990  0.12263910     0.00400
C2399       C  0.88282186  0.70876492  0.10316116    -0.08200
C2400       C  0.90910281  0.72104027  0.08097744    -0.05600
C2401       C  0.92980660  0.71081453  0.07643087     0.00400
C2402       C  0.92408586  0.68733656  0.09550485    -0.08100
C2403       C  0.94465082  0.67434484  0.09169278     0.62300
H2404       H  0.89316600  0.65760751  0.13312526     0.13000
H2405       H  0.91300161  0.73846336  0.06580144     0.13000
C2406       C  0.86067076  0.72015407  0.10439433     0.62500
F2407       F  0.93575032  0.65297474  0.11484249    -0.22600
F2408       F  0.97476549  0.69220407  0.10011156    -0.20000
F2409       F  0.93893079  0.66479052  0.38145620    -0.19600
F2410       F  0.87263780  0.74464627  0.08784964    -0.19700
F2411       F  0.85400177  0.72311081  0.14005108    -0.20000
F2412       F  0.83414213  0.70352090  0.08600971    -0.22700
C2413       C  0.75967697  0.68389448  0.07558144    -0.05800
C2414       C  0.76820028  0.71008082  0.08400348     0.00400
C2415       C  0.78186576  0.72040101  0.11813076    -0.08200
C2416       C  0.78910830  0.70458708  0.14128539    -0.05600
C2417       C  0.78229892  0.67864474  0.13193275     0.00400
C2418       C  0.76529436  0.66766149  0.09936695    -0.08100
C2419       C  0.75201126  0.63908341  0.08816831     0.62300
H2420       H  0.74829963  0.67590043  0.04982984     0.13000
H2421       H  0.80204655  0.71324275  0.16576538     0.13000
C2422       C  0.78858683  0.74779572  0.13023750     0.62500
F2423       F  0.75050997  0.62333654  0.11683780    -0.22600
F2424       F  0.76966618  0.63665126  0.06049644    -0.20000
F2425       F  0.72212587  0.62994938  0.07568622    -0.19600
F2426       F  0.76208590  0.75043023  0.12749499    -0.19700
F2427       F  0.81145556  0.76652059  0.10858861    -0.20000
F2428       F  0.79842773  0.75260939  0.16608309    -0.22700
C2429       C  0.75306177  0.69230740  0.24099895    -0.05500
C2430       C  0.77569218  0.71119954  0.26367308     0.00400
C2431       C  0.80586385  0.71356863  0.26337086    -0.08200
C2432       C  0.81217117  0.69753567  0.23947619    -0.05600
C2433       C  0.78953377  0.67871862  0.21675414     0.00400
C2434       C  0.75900227  0.67543123  0.21855141    -0.08100
C2435       C  0.73150138  0.65436160  0.19856201     0.62300
H2436       H  0.72989322  0.69012292  0.24143772     0.13000
H2437       H  0.83537848  0.70002974  0.23782419     0.13000
C2438       C  0.83137946  0.73238072  0.28836906     0.62500
F2439       F  0.73788692  0.63596731  0.18235572    -0.22600
F2440       F  0.72181965  0.66600817  0.17222050    -0.20000
F2441       F  0.70751692  0.64110963  0.22290396    -0.19600
F2442       F  0.82156516  0.72746627  0.32424332    -0.19700
F2443       F  0.83923002  0.75812111  0.27941486    -0.20000
F2444       F  0.85782467  0.72959933  0.28546810    -0.22700
C2445       C  0.58023941  0.81519704  0.07625259    -0.05500
C2446       C  0.56577962  0.78763150  0.07812484     0.00400
C2447       C  0.57520013  0.77560076  0.10552449    -0.08200
C2448       C  0.59948094  0.79179506  0.12907522    -0.05600
C2449       C  0.61538020  0.81941173  0.12569353     0.00400
C2450       C  0.60451897  0.83132385  0.09938846    -0.08100
C2451       C  0.61535346  0.86058413  0.09536570     0.62300
H2452       H  0.57252555  0.82454389  0.05603809     0.13000
H2453       H  0.60628734  0.78279507  0.15030109     0.13000
C2454       C  0.55964024  0.74592602  0.11036084     0.62500
F2455       F  0.59106681  0.86567520  0.10304335    -0.22600
F2456       F  0.62448391  0.86817446  0.05987790    -0.20000
F2457       F  0.63930324  0.87572122  0.11815559    -0.19600
F2458       F  0.56686103  0.73460278  0.08118882    -0.19700
F2459       F  0.52800076  0.73610794  0.11243805    -0.20000
F2460       F  0.56909539  0.73866283  0.14189779    -0.22700
C2461       C  0.62080388  0.80345385  0.23668726    -0.05500
C2462       C  0.61612807  0.81926971  0.21069710     0.00400
C2463       C  0.58657472  0.81834614  0.20973295    -0.08200
C2464       C  0.56325172  0.80107367  0.23309711    -0.05600
C2465       C  0.56876854  0.78663905  0.25990247     0.00400
C2466       C  0.59812163  0.78781381  0.26208336    -0.08100
C2467       C  0.60613392  0.77367769  0.29183599     0.62300
H2468       H  0.64276521  0.80358279  0.23758426     0.13000
H2469       H  0.54062463  0.80004209  0.23182447     0.13000
C2470       C  0.57801317  0.83593398  0.18754303     0.62500
F2471       F  0.63719504  0.78045344  0.29157800    -0.22600
F2472       F  0.58945645  0.74673424  0.28693628    -0.20000
F2473       F  0.59932091  0.78030023  0.32563759    -0.19600
F2474       F  0.55627498  0.82113458  0.16171975    -0.19700
F2475       F  0.60289490  0.85545086  0.17067208    -0.20000
F2476       F  0.56564654  0.84788826  0.21008857    -0.22700
C2477       C  0.74014884  0.80240525  0.10661492    -0.05500
C2478       C  0.71902525  0.78589413  0.08058490     0.00400
C2479       C  0.68906565  0.78372074  0.07919127    -0.08200
C2480       C  0.68152203  0.79810146  0.10425967    -0.05600
C2481       C  0.70264431  0.81493826  0.13010358     0.00400
C2482       C  0.73291056  0.81749011  0.13101922    -0.08100
C2483       C  0.75925744  0.83622086  0.15499467     0.62300
H2484       H  0.76310870  0.80412098  0.10730442     0.13000
H2485       H  0.65857082  0.79627376  0.10384608     0.13000
C2486       C  0.66520501  0.76712582  0.05087824     0.62500
F2487       F  0.76859342  0.82185717  0.17714851    -0.22600
F2488       F  0.75186698  0.85179295  0.17674082    -0.20000
F2489       F  0.78386326  0.85274461  0.13322389    -0.19600
F2490       F  0.65565209  0.74070005  0.05714014    -0.19700
F2491       F  0.67646771  0.77364259  0.35073115    -0.20000
F2492       F  0.63927929  0.77076781  0.05202951    -0.22700
C2493       C  0.70410985  0.77691329  0.23459710    -0.05500
C2494       C  0.72439138  0.79088658  0.26270328     0.00400
C2495       C  0.73147806  0.81750442  0.26867716    -0.08200
C2496       C  0.71919508  0.82942361  0.24479108    -0.05600
C2497       C  0.69975851  0.81576951  0.21554668     0.00400
C2498       C  0.69039767  0.78829161  0.21227341    -0.08100
C2499       C  0.66418754  0.76902677  0.18886219     0.62300
H2500       H  0.69749495  0.75619393  0.23123430     0.13000
H2501       H  0.72497585  0.84967351  0.24877948     0.13000
C2502       C  0.75104536  0.83312056  0.30073519     0.62500
F2503       F  0.64346532  0.74846298  0.21030576    -0.22600
F2504       F  0.67563231  0.75886121  0.16233661    -0.20000
F2505       F  0.64808840  0.78023029  0.17276764    -0.19600
F2506       F  0.74288941  0.82187199  0.99762294    -0.19700
F2507       F  0.75562051  0.85898269  0.96661133    -0.20000
F2508       F  0.78096175  0.83725279  0.29634364    -0.22700
C2509       C  0.69761265  0.89402770  0.08515834    -0.05500
C2510       C  0.71249149  0.89602236  0.11861726     0.00400
C2511       C  0.74158867  0.91882837  0.12394622    -0.08200
C2512       C  0.74998428  0.94078876  0.10105809    -0.05600
C2513       C  0.73239806  0.93953410  0.07052916     0.00400
C2514       C  0.70706183  0.91514919  0.06086972    -0.08100
C2515       C  0.69005355  0.91102031  0.02491127     0.62300
H2516       H  0.67743330  0.87610800  0.07813786     0.13000
H2517       H  0.77116118  0.95877923  0.10629528     0.13000
C2518       C  0.76653090  0.92021152  0.14910986     0.62500
F2519       F  0.67174160  0.92332034  0.02581015    -0.22600
F2520       F  0.67123650  0.88569368  0.35102758    -0.20000
F2521       F  0.71088151  0.92115283  0.99671049    -0.19600
F2522       F  0.75856934  0.89652841  0.16574633    -0.19700
F2523       F  0.77301715  0.93949940  0.17507979    -0.20000
F2524       F  0.79308233  0.92671111  0.12908230    -0.22700
C2525       C  0.73163400  0.90414665  0.23031732    -0.05500
C2526       C  0.70887662  0.90137917  0.20502076     0.00400
C2527       C  0.69920267  0.92115342  0.20391222    -0.08200
C2528       C  0.71206266  0.94217812  0.22861825    -0.05600
C2529       C  0.73422338  0.94449869  0.25415171     0.00400
C2530       C  0.74527396  0.92574223  0.25425205    -0.08100
C2531       C  0.77127746  0.92827011  0.27909539     0.62300
H2532       H  0.73944384  0.88958229  0.23032584     0.13000
H2533       H  0.70454050  0.95709952  0.22856741     0.13000
C2534       C  0.67388015  0.91963308  0.17923142     0.62500
F2535       F  0.77754988  0.90735625  0.27508588    -0.22600
F2536       F  0.76366376  0.92907024  0.31517167    -0.20000
F2537       F  0.79796360  0.95104434  0.27063525    -0.19600
F2538       F  0.64872756  0.89543160  0.18348949    -0.19700
F2539       F  0.68355207  0.92352522  0.14349178    -0.20000
F2540       F  0.66464037  0.93834325  0.18758921    -0.22700
C2541       C  0.67804485  0.85045807  0.53651471     0.45700
H2542       H  0.67820392  0.85256387  0.56661279    -0.03300
C2543       C  0.67785745  0.84614570  0.46651080     0.45800
H2544       H  0.67754862  0.84330691  0.43666242    -0.03300
C2545       C  0.69172279  0.83240425  0.52348505    -0.17000
C2546       C  0.64503527  0.83740923  0.52038409    -0.16800
C2547       C  0.69604823  0.87736795  0.51644919    -0.17100
C2548       C  0.69264034  0.83121622  0.48608190    -0.17100
C2549       C  0.64494130  0.83558913  0.48290689    -0.16700
C2550       C  0.69714736  0.87489996  0.47907095    -0.17000
C2551       C  0.82177789  0.65345224  0.53527993     0.45700
H2552       H  0.82360127  0.65328607  0.56536643    -0.03300
C2553       C  0.81662889  0.65487119  0.46530250     0.45800
H2554       H  0.81506023  0.65584159  0.43526601    -0.03300
C2555       C  0.80857839  0.62597417  0.51721503    -0.17000
C2556       C  0.80099160  0.66552101  0.52306682    -0.16800
C2557       C  0.85302705  0.66986696  0.51653432    -0.17100
C2558       C  0.80475729  0.62654032  0.48016747    -0.17100
C2559       C  0.79772012  0.66579708  0.48577041    -0.16700
C2560       C  0.85018603  0.67118514  0.47932192    -0.17000
O2561       O  0.96082537  0.74805566  0.36954821    -0.72700
O2562       O  0.52771189  0.78512796  0.62823108    -0.73700
O2563       O  0.96286955  0.75084246  0.62494478    -0.62300
O2564       O  0.52630128  0.78301389  0.37486310    -0.70700
O2565       O  0.53655087  0.74945840  0.37537895    -0.70300
O2566       O  0.97276048  0.71709463  0.62486392    -0.61500
O2567       O  0.53741738  0.75116567  0.62826878    -0.74000
O2568       O  0.97054768  0.71435708  0.36878830    -0.72800
Cu2569     Cu  0.99438817  0.76781460  0.33274396     1.04600
Cu2570     Cu  0.00456710  0.73154381  0.33236882     1.04300
C2571       C  0.95466025  0.72498547  0.38066130     0.93500
C2572       C  0.54354029  0.77407287  0.61725831     0.92600
C2573       C  0.95791785  0.72859900  0.61218997     0.84800
C2574       C  0.54182519  0.77211783  0.38713417     0.91100
O2575       O  0.71649920  0.75433445  0.63090331    -0.72700
O2576       O  0.73306396  0.71379378  0.37513310    -0.73700
O2577       O  0.70976813  0.75000943  0.37410329    -0.62300
O2578       O  0.74101306  0.71816570  0.63109497    -0.70700
O2579       O  0.78851204  0.75108033  0.63432535    -0.70300
O2580       O  0.75714167  0.78329986  0.37761088    -0.61500
O2581       O  0.78061927  0.74694403  0.37935651    -0.74000
O2582       O  0.76377746  0.78786066  0.63388662    -0.72800
Cu2583     Cu  0.72184361  0.73188105  0.33611107     1.04600
Cu2584     Cu  0.77266596  0.76726275  0.33994912     1.04300
C2585       C  0.73632594  0.77760412  0.62131950     0.93500
C2586       C  0.75974364  0.72434813  0.38979966     0.92600
C2587       C  0.72884821  0.77216295  0.38754619     0.84800
C2588       C  0.76929527  0.72867462  0.62130761     0.91100
O2589       O  0.72166063  0.97007491  0.37025280    -0.72700
O2590       O  0.74325659  0.52578980  0.62939142    -0.73700
O2591       O  0.72514146  0.97175389  0.62708109    -0.62300
O2592       O  0.74417429  0.52485839  0.37201263    -0.70700
O2593       O  0.79274888  0.53223888  0.37086915    -0.70300
O2594       O  0.77334707  0.97830028  0.62724708    -0.61500
O2595       O  0.79161052  0.53270470  0.62718586    -0.74000
O2596       O  0.77014633  0.97709531  0.37041834    -0.72800
Cu2597     Cu  0.73198760  0.49739413  0.33284390     1.04600
Cu2598     Cu  0.78381997  0.50492945  0.33252197     1.04300
C2599       C  0.74208422  0.96391391  0.38093356     0.93500
C2600       C  0.77053485  0.53829829  0.61674714     0.92600
C2601       C  0.74594073  0.96632059  0.61492144     0.84800
C2602       C  0.77220619  0.53804273  0.38244787     0.91100
C2603       C  0.81240463  0.60635511  0.42472853    -0.05500
C2604       C  0.79323567  0.60333243  0.45482355     0.00400
C2605       C  0.76599248  0.57866593  0.45965705    -0.08200
C2606       C  0.76079712  0.55783102  0.43595880    -0.05600
C2607       C  0.78087940  0.56068124  0.40722115     0.00400
C2608       C  0.80707291  0.58549299  0.40106074    -0.08100
C2609       C  0.82971915  0.59022517  0.37004609     0.62300
H2610       H  0.83304031  0.62502708  0.42114384     0.13000
H2611       H  0.74038746  0.53894832  0.43976386     0.13000
C2612       C  0.74054242  0.57269776  0.48733719     0.62500
F2613       F  0.85095890  0.61662488  0.36648415    -0.22600
F2614       F  0.81286404  0.58354513  0.66954213    -0.20000
F2615       F  0.84582295  0.57639110  0.37652341    -0.19600
F2616       F  0.74430415  0.59437004  0.50670517    -0.19700
F2617       F  0.73914799  0.55366851  0.51140269    -0.20000
F2618       F  0.71251834  0.56301248  0.46950762    -0.22700
C2619       C  0.77886968  0.59973709  0.56912151    -0.05500
C2620       C  0.79883533  0.60199238  0.54024099     0.00400
C2621       C  0.80854751  0.58231385  0.53608597    -0.08200
C2622       C  0.79784620  0.56156999  0.56134941    -0.05600
C2623       C  0.77806140  0.55957810  0.59004309     0.00400
C2624       C  0.76745116  0.57850227  0.59350339    -0.08100
C2625       C  0.74426848  0.57662215  0.62251300     0.62300
H2626       H  0.77139308  0.61462185  0.57171619     0.13000
H2627       H  0.80531815  0.54664287  0.55879401     0.13000
C2628       C  0.83040413  0.58157009  0.50726665     0.62500
F2629       F  0.73884880  0.59816189  0.62183797    -0.22600
F2630       F  0.75792657  0.57574380  0.32524425    -0.20000
F2631       F  0.71635558  0.55438592  0.61662306    -0.19600
F2632       F  0.85409597  0.57906924  0.52406860    -0.19700
F2633       F  0.84367159  0.60365091  0.48565012    -0.20000
F2634       F  0.81450493  0.55983179  0.48521369    -0.22700
C2635       C  0.89891996  0.71208844  0.53504591    -0.05500
C2636       C  0.88241354  0.68449344  0.53814408     0.00400
C2637       C  0.89311857  0.67194584  0.56361596    -0.08200
C2638       C  0.91793537  0.68736173  0.58640756    -0.05600
C2639       C  0.93337802  0.71482694  0.58453453     0.00400
C2640       C  0.92446381  0.72757063  0.55748741    -0.08100
C2641       C  0.94179668  0.75718374  0.55176802     0.62300
H2642       H  0.89107914  0.72166471  0.51567444     0.13000
H2643       H  0.92503285  0.67781816  0.60693293     0.13000
C2644       C  0.88018880  0.64244384  0.56596257     0.62500
F2645       F  0.93226005  0.76471911  0.52050579    -0.22600
F2646       F  0.97306610  0.76534465  0.54833221    -0.20000
F2647       F  0.93675659  0.76985255  0.58096683    -0.19600
F2648       F  0.87838555  0.63287685  0.53138943    -0.19700
F2649       F  0.85167586  0.63118760  0.58259982    -0.20000
F2650       F  0.89888959  0.63513737  0.58581733    -0.22700
C2651       C  0.89667971  0.67466753  0.44826761    -0.05500
C2652       C  0.87682448  0.68548590  0.45412645     0.00400
C2653       C  0.88254918  0.70906873  0.43585614    -0.08200
C2654       C  0.90862009  0.72141011  0.41325410    -0.05600
C2655       C  0.92849635  0.71055203  0.40672598     0.00400
C2656       C  0.92207548  0.68631473  0.42424057    -0.08100
C2657       C  0.94118678  0.67223840  0.41762881     0.62300
H2658       H  0.89149876  0.65644261  0.46216042     0.13000
H2659       H  0.91294173  0.73938328  0.39927358     0.13000
C2660       C  0.86078281  0.72081747  0.43857340     0.62500
F2661       F  0.93115723  0.64964301  0.43853323    -0.22600
F2662       F  0.97170216  0.68864565  0.42646318    -0.20000
F2663       F  0.93922112  0.66564448  0.71538348    -0.19600
F2664       F  0.87310933  0.74573076  0.42326605    -0.19700
F2665       F  0.85419521  0.72297804  0.47456122    -0.20000
F2666       F  0.83407518  0.70484714  0.41997011    -0.22700
C2667       C  0.75762037  0.68299159  0.40980517    -0.05800
C2668       C  0.76662840  0.70936279  0.41755923     0.00400
C2669       C  0.78100374  0.72013121  0.45120708    -0.08200
C2670       C  0.78872557  0.70462924  0.47433781    -0.05600
C2671       C  0.78165750  0.67855141  0.46546305     0.00400
C2672       C  0.76369052  0.66707919  0.43369231    -0.08100
C2673       C  0.74964751  0.63824717  0.42369763     0.62300
H2674       H  0.74555366  0.67461054  0.38453491     0.13000
H2675       H  0.80229221  0.71367902  0.49826263     0.13000
C2676       C  0.78816640  0.74774927  0.46274326     0.62500
F2677       F  0.74899890  0.62313964  0.45277545    -0.22600
F2678       F  0.76611845  0.63492127  0.39538758    -0.20000
F2679       F  0.71936379  0.62913696  0.41273343    -0.19600
F2680       F  0.76199751  0.75083630  0.45941881    -0.19700
F2681       F  0.81139785  0.76609153  0.44107000    -0.20000
F2682       F  0.79775310  0.75270148  0.49866695    -0.22700
C2683       C  0.75548568  0.69378231  0.57482953    -0.05500
C2684       C  0.77895351  0.71385486  0.59537536     0.00400
C2685       C  0.80947149  0.71709830  0.59284598    -0.08200
C2686       C  0.81499518  0.70020533  0.56968779    -0.05600
C2687       C  0.79135568  0.68000568  0.54960279     0.00400
C2688       C  0.76079455  0.67624763  0.55312969    -0.08100
C2689       C  0.73277019  0.65395358  0.53563228     0.62300
H2690       H  0.73213329  0.69108642  0.57654977     0.13000
H2691       H  0.83826018  0.70304700  0.56644162     0.13000
C2692       C  0.83621788  0.73787681  0.61446687     0.62500
F2693       F  0.73897799  0.63479611  0.52167879    -0.22600
F2694       F  0.72210600  0.66384264  0.50799041    -0.20000
F2695       F  0.70959482  0.64205233  0.56135564    -0.19600
F2696       F  0.82952858  0.73435484  0.65132027    -0.19700
F2697       F  0.84144995  0.76272917  0.60397536    -0.20000
F2698       F  0.86333147  0.73651331  0.60884027    -0.22700
C2699       C  0.58139753  0.81469833  0.41054858    -0.05500
C2700       C  0.56706754  0.78718215  0.41344421     0.00400
C2701       C  0.57655990  0.77567501  0.44143055    -0.08200
C2702       C  0.60070577  0.79238922  0.46471418    -0.05600
C2703       C  0.61661046  0.81993709  0.46017683     0.00400
C2704       C  0.60558957  0.83129889  0.43334713    -0.08100
C2705       C  0.61595510  0.86042160  0.42861633     0.62300
H2706       H  0.57357187  0.82363749  0.38985836     0.13000
H2707       H  0.60728550  0.78385319  0.48669831     0.13000
C2708       C  0.56134228  0.74606047  0.44704152     0.62500
F2709       F  0.59140819  0.86522596  0.43598851    -0.22600
F2710       F  0.62482374  0.86759418  0.39299484    -0.20000
F2711       F  0.63989529  0.87607272  0.45114074    -0.19600
F2712       F  0.56868410  0.73450805  0.41824725    -0.19700
F2713       F  0.52965108  0.73593257  0.44917023    -0.20000
F2714       F  0.57109847  0.73936524  0.47883177    -0.22700
C2715       C  0.62186213  0.80563866  0.57102578    -0.05500
C2716       C  0.61767150  0.82138725  0.54451542     0.00400
C2717       C  0.58816402  0.82049075  0.54242527    -0.08200
C2718       C  0.56421061  0.80288929  0.56463522    -0.05600
C2719       C  0.56902962  0.78822354  0.59158484     0.00400
C2720       C  0.59844648  0.78972021  0.59545972    -0.08100
C2721       C  0.60565394  0.77556323  0.62592407     0.62300
H2722       H  0.64388118  0.80588498  0.57289820     0.13000
H2723       H  0.54158432  0.80177794  0.56236396     0.13000
C2724       C  0.58017902  0.83844904  0.52032297     0.62500
F2725       F  0.63680681  0.78277425  0.62743990    -0.22600
F2726       F  0.58960973  0.74864135  0.62049321    -0.20000
F2727       F  0.59734794  0.78171913  0.65916636    -0.19600
F2728       F  0.55846639  0.82400898  0.49427120    -0.19700
F2729       F  0.60535136  0.85780828  0.50378108    -0.20000
F2730       F  0.56802379  0.85054745  0.54291982    -0.22700
C2731       C  0.73977606  0.80171755  0.44035949    -0.05500
C2732       C  0.71834147  0.78535514  0.41447077     0.00400
C2733       C  0.68853690  0.78351931  0.41347375    -0.08200
C2734       C  0.68154185  0.79821133  0.43861801    -0.05600
C2735       C  0.70309666  0.81511798  0.46405504     0.00400
C2736       C  0.73313862  0.81719303  0.46471837    -0.08100
C2737       C  0.75984179  0.83576016  0.48838694     0.62300
H2738       H  0.76257660  0.80309288  0.44086241     0.13000
H2739       H  0.65872986  0.79667150  0.43847487     0.13000
C2740       C  0.66428685  0.76698920  0.38550119     0.62500
F2741       F  0.76848493  0.82117691  0.51104750    -0.22600
F2742       F  0.75322369  0.85208075  0.50954713    -0.20000
F2743       F  0.78467462  0.85155537  0.46639564    -0.19600
F2744       F  0.65453774  0.74054093  0.39181655    -0.19700
F2745       F  0.67830538  0.77327009  0.68305726    -0.20000
F2746       F  0.63855184  0.77089254  0.38710670    -0.22700
C2747       C  0.70528434  0.77822564  0.56908148    -0.05500
C2748       C  0.72656507  0.79254371  0.59615771     0.00400
C2749       C  0.73438540  0.81940572  0.60136942    -0.08200
C2750       C  0.72156473  0.83108880  0.57786437    -0.05600
C2751       C  0.70123463  0.81708505  0.54948985     0.00400
C2752       C  0.69137940  0.78949871  0.54694082    -0.08100
C2753       C  0.66461268  0.77010263  0.52439763     0.62300
H2754       H  0.69819804  0.75737439  0.56626575     0.13000
H2755       H  0.72778519  0.85153051  0.58131463     0.13000
C2756       C  0.75546258  0.83558317  0.63209183     0.62500
F2757       F  0.64381395  0.75023341  0.54670878    -0.22600
F2758       F  0.67522557  0.75902045  0.49820641    -0.20000
F2759       F  0.64892266  0.78148194  0.50791100    -0.19600
F2760       F  0.73889544  0.81950921  0.33281206    -0.19700
F2761       F  0.75200509  0.85745235  0.30390078    -0.20000
F2762       F  0.78497756  0.83912710  0.62605811    -0.22700
C2763       C  0.69824255  0.89470730  0.41839870    -0.05500
C2764       C  0.71359812  0.89669038  0.45146837     0.00400
C2765       C  0.74272536  0.91947468  0.45640320    -0.08200
C2766       C  0.75069600  0.94152033  0.43385574    -0.05600
C2767       C  0.73254855  0.94037378  0.40394825     0.00400
C2768       C  0.70708163  0.91598843  0.39449779    -0.08100
C2769       C  0.68899443  0.91207014  0.35942741     0.62300
H2770       H  0.67812758  0.87669152  0.41151414     0.13000
H2771       H  0.77200190  0.95946620  0.43878259     0.13000
C2772       C  0.76816395  0.92057559  0.48040554     0.62500
F2773       F  0.66984569  0.92348862  0.36262778    -0.22600
F2774       F  0.67338093  0.88574802  0.68297200    -0.20000
F2775       F  0.70880152  0.92322736  0.33056456    -0.19600
F2776       F  0.76029912  0.89678965  0.49669978    -0.19700
F2777       F  0.77556102  0.93985947  0.50660170    -0.20000
F2778       F  0.79412581  0.92687809  0.45930954    -0.22700
C2779       C  0.73466280  0.90555647  0.56192540    -0.05500
C2780       C  0.71112798  0.90258840  0.53775241     0.00400
C2781       C  0.70124115  0.92221830  0.53748390    -0.08200
C2782       C  0.71477765  0.94337313  0.56186843    -0.05600
C2783       C  0.73740999  0.94569017  0.58670905     0.00400
C2784       C  0.74871304  0.92711648  0.58581532    -0.08100
C2785       C  0.77527710  0.92972792  0.60966672     0.62300
H2786       H  0.74260254  0.89103688  0.56124786     0.13000
H2787       H  0.70701485  0.95813524  0.56260835     0.13000
C2788       C  0.67465691  0.92011159  0.51465779     0.62500
F2789       F  0.78214466  0.90926838  0.60417614    -0.22600
F2790       F  0.76802336  0.92972822  0.64606550    -0.20000
F2791       F  0.80151369  0.95291797  0.60139324    -0.19600
F2792       F  0.64909806  0.89699634  0.52341880    -0.19700
F2793       F  0.68134495  0.92077775  0.47817515    -0.20000
F2794       F  0.66761402  0.94039966  0.52114148    -0.22700
C2795       C  0.67606752  0.84892287  0.86862097     0.45700
H2796       H  0.67566679  0.85072558  0.89873243    -0.03300
C2797       C  0.67719580  0.84539065  0.79860519     0.45800
H2798       H  0.67746701  0.84280944  0.76874616    -0.03300
C2799       C  0.68972754  0.83079178  0.85587340    -0.17000
C2800       C  0.64331264  0.83628580  0.85159282    -0.16800
C2801       C  0.69480567  0.87603218  0.84923612    -0.17100
C2802       C  0.69137273  0.83005826  0.81850898    -0.17100
C2803       C  0.64394209  0.83497366  0.81403989    -0.16700
C2804       C  0.69652761  0.87401607  0.81182897    -0.17000
C2805       C  0.82224671  0.65389543  0.86952266     0.45700
H2806       H  0.82339569  0.65312052  0.89968774    -0.03300
C2807       C  0.81942624  0.65628305  0.79933076     0.45800
H2808       H  0.81909615  0.65783137  0.76924747    -0.03300
C2809       C  0.80949314  0.62670363  0.85088497    -0.17000
C2810       C  0.80164425  0.66603249  0.85633492    -0.16800
C2811       C  0.85409724  0.67055071  0.85212955    -0.17100
C2812       C  0.80698363  0.62774580  0.81366760    -0.17100
C2813       C  0.79985102  0.66697472  0.81878925    -0.16700
C2814       C  0.85236804  0.67238400  0.81496843    -0.17000
O2815       O  0.96018664  0.74859572  0.70230163    -0.72700
O2816       O  0.52723052  0.78525428  0.96249342    -0.73700
O2817       O  0.96391462  0.75046034  0.96257622    -0.62300
O2818       O  0.52529571  0.78403022  0.70457573    -0.70700
O2819       O  0.53539068  0.75041392  0.70472448    -0.70300
O2820       O  0.97310765  0.71640056  0.96145905    -0.61500
O2821       O  0.53689830  0.75130298  0.96223551    -0.74000
O2822       O  0.97042996  0.71517851  0.70192074    -0.72800
Cu2823     Cu  0.99337262  0.76828220  0.66518081     1.04600
Cu2824     Cu  0.00404846  0.73226493  0.66517544     1.04300
C2825       C  0.95455875  0.72577744  0.71391757     0.93500
C2826       C  0.54285255  0.77413328  0.95102326     0.92600
C2827       C  0.95834057  0.72819107  0.94948060     0.84800
C2828       C  0.54079949  0.77304677  0.71670897     0.91100
O2829       O  0.71436544  0.75286402  0.96430002    -0.72700
O2830       O  0.73736082  0.71599914  0.70739866    -0.73700
O2831       O  0.71290885  0.75121666  0.70708600    -0.62300
O2832       O  0.73840107  0.71616408  0.96526058    -0.70700
O2833       O  0.78594096  0.74907728  0.96850675    -0.70300
O2834       O  0.75979545  0.78517867  0.71062320    -0.61500
O2835       O  0.78460008  0.74962994  0.71186290    -0.74000
O2836       O  0.76171126  0.78626447  0.96725903    -0.72800
Cu2837     Cu  0.72541766  0.73382175  0.66887692     1.04600
Cu2838     Cu  0.77594206  0.76963970  0.67265736     1.04300
C2839       C  0.73427757  0.77607048  0.95455749     0.93500
C2840       C  0.76404824  0.72683015  0.72203048     0.92600
C2841       C  0.73146107  0.77350106  0.72051021     0.84800
C2842       C  0.76675210  0.72661123  0.95569766     0.91100
O2843       O  0.72386787  0.97015089  0.70339000    -0.72700
O2844       O  0.74172457  0.52593797  0.96202359    -0.73700
O2845       O  0.72242504  0.97058201  0.96034184    -0.62300
O2846       O  0.74494399  0.52591094  0.70557641    -0.70700
O2847       O  0.79343057  0.53311325  0.70367707    -0.70300
O2848       O  0.77062419  0.97714547  0.96033547    -0.61500
O2849       O  0.78997609  0.53256055  0.96015519    -0.74000
O2850       O  0.77221930  0.97686198  0.70408376    -0.72800
Cu2851     Cu  0.73205181  0.49800576  0.66684525     1.04600
Cu2852     Cu  0.78380629  0.50540812  0.66564102     1.04300
C2853       C  0.74403524  0.96375134  0.71425287     0.93500
C2854       C  0.76909150  0.53833462  0.94954798     0.92600
C2855       C  0.74313888  0.96501313  0.94824658     0.84800
C2856       C  0.77311631  0.53911411  0.71552273     0.91100
C2857       C  0.81462613  0.60743567  0.75803717    -0.05500
C2858       C  0.79550132  0.60464351  0.78809470     0.00400
C2859       C  0.76776988  0.58031664  0.79252752    -0.08200
C2860       C  0.76235210  0.55928841  0.76911686    -0.05600
C2861       C  0.78218810  0.56190015  0.74020926     0.00400
C2862       C  0.80843164  0.58665100  0.73376663    -0.08100
C2863       C  0.82977958  0.59150919  0.70131132     0.62300
H2864       H  0.83548966  0.62594691  0.75448904     0.13000
H2865       H  0.74171768  0.54057054  0.77295765     0.13000
C2866       C  0.74182596  0.57514059  0.81913773     0.62500
F2867       F  0.85080191  0.61793888  0.69741994    -0.22600
F2868       F  0.81154187  0.58298560  0.00311748    -0.20000
F2869       F  0.84614988  0.57767949  0.70572289    -0.19600
F2870       F  0.74585384  0.59719453  0.83779625    -0.19700
F2871       F  0.73910307  0.55601849  0.84385161    -0.20000
F2872       F  0.71435071  0.56597740  0.80022762    -0.22700
C2873       C  0.77827238  0.60003995  0.90179592    -0.05500
C2874       C  0.79877026  0.60242975  0.87350014     0.00400
C2875       C  0.80864574  0.58285910  0.86981988    -0.08200
C2876       C  0.79723166  0.56181141  0.89460608    -0.05600
C2877       C  0.77699976  0.55971061  0.92286205     0.00400
C2878       C  0.76661857  0.57880127  0.92618561    -0.08100
C2879       C  0.74362028  0.57720960  0.95524374     0.62300
H2880       H  0.77080828  0.61494841  0.90411382     0.13000
H2881       H  0.80479072  0.54692810  0.89229131     0.13000
C2882       C  0.83195050  0.58300123  0.84242680     0.62500
F2883       F  0.73885231  0.59909511  0.95482951    -0.22600
F2884       F  0.75503685  0.57535589  0.65679500    -0.20000
F2885       F  0.71544398  0.55529234  0.94923129    -0.19600
F2886       F  0.85529449  0.58089501  0.86074419    -0.19700
F2887       F  0.84549573  0.60539923  0.82149112    -0.20000
F2888       F  0.81751194  0.56152551  0.81955034    -0.22700
C2889       C  0.89625949  0.71281301  0.87635700    -0.05500
C2890       C  0.88294252  0.68523259  0.87457750     0.00400
C2891       C  0.89620181  0.67254756  0.89597737    -0.08200
C2892       C  0.92102854  0.68764330  0.91898383    -0.05600
C2893       C  0.93354763  0.71498972  0.92180828     0.00400
C2894       C  0.92136518  0.72807377  0.89941912    -0.08100
C2895       C  0.93435249  0.75784526  0.89950159     0.62300
H2896       H  0.88608284  0.72243008  0.86058377     0.13000
H2897       H  0.93049686  0.67784252  0.93593183     0.13000
C2898       C  0.88539678  0.64333635  0.89418462     0.62500
F2899       F  0.92156711  0.76629061  0.87230070    -0.22600
F2900       F  0.96592449  0.76989159  0.89378525    -0.20000
F2901       F  0.92802140  0.76593403  0.93246647    -0.19600
F2902       F  0.88784432  0.63682752  0.85876567    -0.19700
F2903       F  0.85550570  0.62982436  0.90653171    -0.20000
F2904       F  0.90294796  0.63556422  0.91543856    -0.22700
C2905       C  0.89843521  0.67607213  0.78326839    -0.05500
C2906       C  0.87951420  0.68749606  0.79105754     0.00400
C2907       C  0.88566682  0.71163704  0.77418155    -0.08200
C2908       C  0.91009413  0.72301449  0.74918160    -0.05600
C2909       C  0.92926109  0.71170649  0.74103993     0.00400
C2910       C  0.92331628  0.68761032  0.75861018    -0.08100
C2911       C  0.94232871  0.67351391  0.75142002     0.62300
H2912       H  0.89284523  0.65740741  0.79601975     0.13000
H2913       H  0.91396023  0.74097137  0.73541956     0.13000
C2914       C  0.86618627  0.72532150  0.78005842     0.62500
F2915       F  0.93293761  0.65120144  0.77279450    -0.22600
F2916       F  0.97302473  0.69007112  0.75921897    -0.20000
F2917       F  0.94312212  0.66531093  0.05644388    -0.19600
F2918       F  0.88392842  0.75238420  0.77690089    -0.19700
F2919       F  0.85322773  0.72041191  0.81426438    -0.20000
F2920       F  0.84321238  0.71674269  0.75406334    -0.22700
C2921       C  0.76380035  0.68599782  0.74012377    -0.05800
C2922       C  0.77125758  0.71181470  0.74929742     0.00400
C2923       C  0.78367949  0.72171073  0.78401671    -0.08200
C2924       C  0.79055824  0.70576898  0.80733499    -0.05600
C2925       C  0.78484458  0.68018864  0.79734586     0.00400
C2926       C  0.76900835  0.66960991  0.76398210    -0.08100
C2927       C  0.75579165  0.64112474  0.75236725     0.62300
H2928       H  0.75325310  0.67832580  0.71387963     0.13000
H2929       H  0.80227391  0.71410374  0.83256938     0.13000
C2930       C  0.78966114  0.74886290  0.79641775     0.62500
F2931       F  0.75338570  0.62509042  0.78102246    -0.22600
F2932       F  0.77400254  0.63877700  0.72532603    -0.20000
F2933       F  0.72624578  0.63227996  0.73887471    -0.19600
F2934       F  0.76313451  0.75132336  0.79242406    -0.19700
F2935       F  0.81311228  0.76795220  0.77579079    -0.20000
F2936       F  0.79829884  0.75327904  0.83268855    -0.22700
C2937       C  0.75420703  0.69324044  0.90711359    -0.05500
C2938       C  0.77677560  0.71193075  0.93007043     0.00400
C2939       C  0.80688555  0.71419871  0.92987995    -0.08200
C2940       C  0.81320952  0.69827488  0.90583038    -0.05600
C2941       C  0.79068073  0.67970380  0.88275244     0.00400
C2942       C  0.76020237  0.67655076  0.88432454    -0.08100
C2943       C  0.73279955  0.65587210  0.86372912     0.62300
H2944       H  0.73106865  0.69112634  0.90749993     0.13000
H2945       H  0.83635177  0.70063307  0.90439988     0.13000
C2946       C  0.83229249  0.73273458  0.95522481     0.62500
F2947       F  0.73932106  0.63802755  0.84611262    -0.22600
F2948       F  0.72295317  0.66807205  0.83840220    -0.20000
F2949       F  0.70889620  0.64190801  0.88787684    -0.19600
F2950       F  0.82221974  0.72758668  0.99098929    -0.19700
F2951       F  0.84038537  0.75857848  0.94662064    -0.20000
F2952       F  0.85865021  0.72981391  0.95242091    -0.22700
C2953       C  0.58042362  0.81540566  0.74134339    -0.05500
C2954       C  0.56617405  0.78783345  0.74318334     0.00400
C2955       C  0.57640276  0.77589542  0.76983975    -0.08200
C2956       C  0.60048449  0.79220526  0.79349818    -0.05600
C2957       C  0.61596930  0.81982457  0.79040885     0.00400
C2958       C  0.60497273  0.83163862  0.76409989    -0.08100
C2959       C  0.61618799  0.86091217  0.75937813     0.62300
H2960       H  0.57245287  0.82467537  0.72130849     0.13000
H2961       H  0.60758646  0.78329518  0.81450147     0.13000
C2962       C  0.56220192  0.74618986  0.77353538     0.62500
F2963       F  0.59204145  0.86638384  0.76607716    -0.22600
F2964       F  0.62575634  0.86804262  0.72390614    -0.20000
F2965       F  0.63995055  0.87611982  0.78239874    -0.19600
F2966       F  0.56948804  0.73594747  0.74318226    -0.19700
F2967       F  0.53049458  0.73528890  0.77682233    -0.20000
F2968       F  0.57304054  0.73887876  0.80388934    -0.22700
C2969       C  0.61967828  0.80374842  0.90118847    -0.05500
C2970       C  0.61561071  0.81991504  0.87525152     0.00400
C2971       C  0.58636810  0.81965604  0.87428011    -0.08200
C2972       C  0.56288553  0.80285075  0.89783946    -0.05600
C2973       C  0.56782947  0.78797969  0.92443579     0.00400
C2974       C  0.59680957  0.78843238  0.92654853    -0.08100
C2975       C  0.60427648  0.77384520  0.95618355     0.62300
H2976       H  0.64132856  0.80331192  0.90204701     0.13000
H2977       H  0.54052127  0.80234152  0.89663968     0.13000
C2978       C  0.57807633  0.83726531  0.85175690     0.62500
F2979       F  0.63519647  0.78014659  0.95607624    -0.22600
F2980       F  0.58716376  0.74696677  0.95096436    -0.20000
F2981       F  0.59754267  0.78044809  0.99004442    -0.19600
F2982       F  0.55519397  0.82225328  0.82718222    -0.19700
F2983       F  0.60268852  0.85572773  0.83331147    -0.20000
F2984       F  0.56729995  0.85047982  0.87426875    -0.22700
C2985       C  0.74084620  0.80258013  0.77355841    -0.05500
C2986       C  0.72006999  0.78611315  0.74725842     0.00400
C2987       C  0.68983426  0.78338860  0.74586249    -0.08200
C2988       C  0.68189735  0.79760466  0.77078578    -0.05600
C2989       C  0.70276091  0.81454602  0.79671918     0.00400
C2990       C  0.73311667  0.81730294  0.79802733    -0.08100
C2991       C  0.75906104  0.83582119  0.82262265     0.62300
H2992       H  0.76391456  0.80453764  0.77442907     0.13000
H2993       H  0.65888511  0.79563478  0.77013444     0.13000
C2994       C  0.66604919  0.76632947  0.71776073     0.62500
F2995       F  0.76779816  0.82122933  0.84514057    -0.22600
F2996       F  0.75140348  0.85137422  0.84400722    -0.20000
F2997       F  0.78414134  0.85237815  0.80150690    -0.19600
F2998       F  0.65733498  0.74006094  0.72415059    -0.19700
F2999       F  0.67775217  0.77396106  0.01628582    -0.20000
F3000       F  0.63962751  0.76922974  0.71912467    -0.22700
C3001       C  0.70351701  0.77664917  0.90177174    -0.05500
C3002       C  0.72458818  0.79098337  0.92906510     0.00400
C3003       C  0.73227298  0.81783740  0.93409949    -0.08200
C3004       C  0.71921371  0.82938412  0.91064304    -0.05600
C3005       C  0.69915376  0.81540129  0.88202934     0.00400
C3006       C  0.68971582  0.78787717  0.87926708    -0.08100
C3007       C  0.66355449  0.76847086  0.85595003     0.62300
H3008       H  0.69662271  0.75583891  0.89893850     0.13000
H3009       H  0.72518803  0.84974141  0.91413897     0.13000
C3010       C  0.75366182  0.83424069  0.96443773     0.62500
F3011       F  0.64262449  0.74818019  0.87760861    -0.22600
F3012       F  0.67502059  0.75795837  0.82992704    -0.20000
F3013       F  0.64773640  0.77965514  0.83917934    -0.19600
F3014       F  0.74449017  0.82283769  0.66501164    -0.19700
F3015       F  0.75712885  0.86019995  0.63474052    -0.20000
F3016       F  0.78303549  0.83751010  0.95818861    -0.22700
C3017       C  0.69890706  0.89444967  0.75117999    -0.05500
C3018       C  0.71354331  0.89615496  0.78473516     0.00400
C3019       C  0.74266232  0.91888756  0.79037948    -0.08200
C3020       C  0.75128932  0.94103863  0.76780581    -0.05600
C3021       C  0.73397893  0.94006594  0.73716502     0.00400
C3022       C  0.70858060  0.91579594  0.72718956    -0.08100
C3023       C  0.69166459  0.91207633  0.69125271     0.62300
H3024       H  0.67878948  0.87656458  0.74384103     0.13000
H3025       H  0.77250879  0.95893277  0.77329859     0.13000
C3026       C  0.76755785  0.91992405  0.81528267     0.62500
F3027       F  0.67317082  0.92419903  0.69275410    -0.22600
F3028       F  0.67153689  0.88460000  0.01730354    -0.20000
F3029       F  0.71252565  0.92270283  0.66316250    -0.19600
F3030       F  0.75943512  0.89605624  0.83138402    -0.19700
F3031       F  0.77419528  0.93899211  0.84162306    -0.20000
F3032       F  0.79406914  0.92648952  0.79513498    -0.22700
C3033       C  0.73259520  0.90413181  0.89574226    -0.05500
C3034       C  0.70930679  0.90104012  0.87109383     0.00400
C3035       C  0.69885029  0.92027256  0.87086740    -0.08200
C3036       C  0.71156103  0.94122629  0.89568591    -0.05600
C3037       C  0.73448877  0.94404051  0.92043199     0.00400
C3038       C  0.74631312  0.92579746  0.91956392    -0.08100
C3039       C  0.77329299  0.92898927  0.94312061     0.62300
H3040       H  0.74080364  0.88980912  0.89526667     0.13000
H3041       H  0.70331733  0.95567202  0.89631782     0.13000
C3042       C  0.67283956  0.91806090  0.84691999     0.62500
F3043       F  0.78051503  0.90871037  0.93788872    -0.22600
F3044       F  0.76646142  0.92931571  0.97959603    -0.20000
F3045       F  0.79919864  0.95225381  0.93419111    -0.19600
F3046       F  0.64802946  0.89379719  0.85243029    -0.19700
F3047       F  0.68169597  0.92128078  0.81088824    -0.20000
F3048       F  0.66351951  0.93675307  0.85502440    -0.22700
loop_ 
_geom_bond_atom_site_label_1 
_geom_bond_atom_site_label_2 
_geom_bond_distance 
_geom_bond_site_symmetry_2 
_ccdc_geom_bond_type 
C1            H2   1.111       .  S
C1            C7   1.560       .  S
C1            C6   1.550       .  S
C1            C5   1.555       .  S
C3            H4   1.107       .  S
C3            C9   1.555       .  S
C3            C8   1.541       .  S
C3           C10   1.541       .  S
C5            C8   1.377       .  D
C5          C211   1.518       .  S
C6            C9   1.380       .  D
C6          C176   1.507       .  S
C7           C10   1.383       .  D
C7          C240   1.504       .  S
C8          C195   1.490       .  S
C9          C163   1.508       .  S
C10         C224   1.516       .  S
C11          H12   1.108       .  S
C11          C17   1.533       .  S
C11          C16   1.549       .  S
C11          C15   1.546       .  S
C13          H14   1.109       .  S
C13          C19   1.538       .  S
C13          C18   1.547       .  S
C13          C20   1.551       .  S
C15          C18   1.375       .  D
C15          C80   1.491       .  S
C16          C19   1.380       .  D
C16         C147   1.496       .  S
C17          C20   1.380       .  D
C17          C96   1.514       .  S
C18          C64   1.501       .  S
C19         C131   1.505       .  S
C20         C112   1.488       .  S
O21         Cu29   2.008       .  S
O21          C31   1.280       .  A
O22       Cu1807   1.997   1_455  S
O22          C32   1.279       .  A
O23        Cu283   2.006       .  S
O23          C33   1.274       .  A
O24       Cu1553   1.993   1_455  S
O24          C34   1.277       .  A
O25       Cu1554   2.028       .  S
O25          C34   1.279       .  A
O26        Cu284   2.018       .  S
O26          C33   1.282       .  A
O27       Cu1808   1.988       .  S
O27          C32   1.273       .  A
O28         Cu30   1.998       .  S
O28          C31   1.273       .  A
Cu29       O2054   2.001   1_554  S
Cu29        O531   1.997   1_554  S
Cu29       O1548   1.993       .  S
Cu29        Cu30   2.364       .  S
Cu30       O1549   2.025       .  S
Cu30        O534   2.019   1_554  S
Cu30       O2059   1.992   1_554  S
C31         C115   1.497       .  S
C32         C179   1.471       .  S
C33          C99   1.489       .  S
C34         C160   1.491       .  S
O35        Cu297   2.008       .  S
O35          C45   1.279       .  A
O36         Cu43   1.994       .  S
O36          C46   1.276       .  A
O37         Cu43   1.988       .  S
O37          C47   1.274       .  A
O38        Cu297   1.993       .  S
O38          C48   1.277       .  A
O39        Cu298   2.024       .  S
O39          C48   1.279       .  A
O40         Cu44   2.003       .  S
O40          C47   1.278       .  A
O41         Cu44   2.008       .  S
O41          C46   1.276       .  A
O42        Cu298   2.023       .  S
O42          C45   1.278       .  A
Cu43        O543   2.005   1_554  S
Cu43        O546   1.999   1_554  S
Cu43        Cu44   2.369       .  S
Cu44        O547   2.021   1_554  S
Cu44        O550   2.017   1_554  S
C45         C208   1.490       .  S
C46         C128   1.471       .  S
C47         C192   1.478       .  S
C48         C144   1.493       .  S
O49        Cu819   1.986   1_554  S
O49          C59   1.274       .  A
O50        Cu311   1.979   1_545  S
O50          C60   1.272       .  A
O51       Cu1073   2.004       .  S
O51          C61   1.280       .  A
O52         Cu57   2.008   1_544  S
O52          C62   1.279       .  A
O53         Cu58   1.998   1_554  S
O53          C62   1.275       .  A
O54       Cu1074   1.996       .  S
O54          C61   1.273       .  A
O55        Cu312   2.009       .  S
O55          C60   1.280       .  A
O56        Cu820   2.020   1_554  S
O56          C59   1.280       .  A
Cu57        O811   1.987   1_556  S
Cu57        O558   1.980   1_565  S
Cu57       O1321   2.005       .  S
Cu57        Cu58   2.373   1_565  S
Cu58       O1324   1.998   1_545  S
Cu58        O563   2.006       .  S
Cu58        O818   2.015   1_546  S
C59         C227   1.473       .  S
C60          C83   1.473       .  S
C61         C243   1.481       .  S
C62          C67   1.478       .  S
C63          C64   1.406       .  A
C63          C68   1.403       .  A
C63          H70   1.083       .  S
C64          C65   1.429       .  A
C65          C66   1.404       .  A
C65          C72   1.518       .  S
C66          C67   1.399       .  A
C66          H71   1.085       .  S
C67          C68   1.419       .  A
C68          C69   1.522       .  S
C69          F73   1.385       .  S
C69          F75   1.382       .  S
C69         F582   1.381       .  S
C72          F76   1.372       .  S
C72          F77   1.383       .  S
C72          F78   1.384       .  S
F74         C323   1.381       .  S
C79          C80   1.406       .  A
C79          C84   1.400       .  A
C79          H86   1.083       .  S
C80          C81   1.429       .  A
C81          C82   1.403       .  A
C81          C88   1.521       .  S
C82          C83   1.399       .  A
C82          H87   1.085       .  S
C83          C84   1.417       .  A
C84          C85   1.523       .  S
C85          F89   1.385       .  S
C85          F91   1.383       .  S
C85         F344   1.382       .  S
C88          F92   1.385       .  S
C88          F93   1.374       .  S
C88          F94   1.383       .  S
F90         C593   1.381       .  S
C95          C96   1.407       .  A
C95         C100   1.414       .  A
C95         H102   1.076       .  S
C96          C97   1.428       .  A
C97          C98   1.401       .  A
C97         C104   1.510       .  S
C98          C99   1.395       .  A
C98         H103   1.083       .  S
C99         C100   1.420       .  A
C100        C101   1.518       .  S
C101        F105   1.385       .  S
C101        F106   1.384       .  S
C101        F107   1.382       .  S
C104        F108   1.369       .  S
C104        F109   1.377       .  S
C104        F110   1.385       .  S
C111        C112   1.398       .  A
C111        C116   1.410       .  A
C111        H118   1.083       .  S
C112        C113   1.417       .  A
C113        C114   1.402       .  A
C113        C120   1.514       .  S
C114        C115   1.405       .  A
C114        H119   1.082       .  S
C115        C116   1.429       .  A
C116        C117   1.520       .  S
C117        F121   1.384       .  S
C117        F122   1.383       .  S
C117        F631   1.384       .  S
C120        F124   1.385       .  S
C120        F125   1.379       .  S
C120        F126   1.379       .  S
F123        C371   1.384       .  S
C127        C128   1.394       .  A
C127        C132   1.398       .  A
C127        H134   1.085       .  S
C128        C129   1.413       .  A
C129        C130   1.407       .  A
C129        C136   1.517       .  S
C130        C131   1.410       .  A
C130        H135   1.078       .  S
C131        C132   1.426       .  A
C132        C133   1.512       .  S
C133        F137   1.367       .  S
C133        F138   1.383       .  S
C133        F139   1.385       .  S
C136        F140   1.384       .  S
C136        F141   1.382       .  S
C136        F142   1.385       .  S
C143        C144   1.407       .  A
C143        C148   1.403       .  A
C143        H150   1.084       .  S
C144        C145   1.422       .  A
C145        C146   1.408       .  A
C145        C152   1.520       .  S
C146        C147   1.406       .  A
C146        H151   1.081       .  S
C147        C148   1.420       .  A
C148        C149   1.516       .  S
C149        F153   1.374       .  S
C149        F154   1.383       .  S
C149        F155   1.384       .  S
C152        F156   1.384       .  S
C152        F157   1.383       .  S
C152        F158   1.386       .  S
C159        C160   1.401       .  A
C159        C164   1.402       .  A
C159        H166   1.085       .  S
C160        C161   1.416       .  A
C161        C162   1.412       .  A
C161        C168   1.517       .  S
C162        C163   1.408       .  A
C162        H167   1.072       .  S
C163        C164   1.425       .  A
C164        C165   1.515       .  S
C165        F169   1.384       .  S
C165        F170   1.378       .  S
C165        F171   1.373       .  S
C168        F172   1.383       .  S
C168        F173   1.383       .  S
C168        F174   1.385       .  S
C175        C176   1.410       .  A
C175        C180   1.403       .  A
C175        H182   1.076       .  S
C176        C177   1.428       .  A
C177        C178   1.397       .  A
C177        C184   1.506       .  S
C178        C179   1.393       .  A
C178        H183   1.086       .  S
C179        C180   1.414       .  A
C180        C181   1.521       .  S
C181        F185   1.385       .  S
C181        F186   1.382       .  S
C181        F187   1.384       .  S
C184        F188   1.383       .  S
C184        F189   1.355       .  S
C184        F190   1.385       .  S
C191        C192   1.403       .  A
C191        C196   1.404       .  A
C191        H198   1.085       .  S
C192        C193   1.418       .  A
C193        C194   1.399       .  A
C193        C200   1.522       .  S
C194        C195   1.405       .  A
C194        H199   1.082       .  S
C195        C196   1.424       .  A
C196        C197   1.517       .  S
C197        F201   1.383       .  S
C197        F202   1.370       .  S
C197        F203   1.384       .  S
C200        F204   1.383       .  S
C200        F206   1.385       .  S
C200        F713   1.384       .  S
F205        C454   1.384       .  S
C207        C208   1.398       .  A
C207        C212   1.405       .  A
C207        H214   1.085       .  S
C208        C209   1.419       .  A
C209        C210   1.413       .  A
C209        C216   1.519       .  S
C210        C211   1.407       .  A
C210        H215   1.071       .  S
C211        C212   1.428       .  A
C212        C213   1.511       .  S
C213        F217   1.384       .  S
C213        F218   1.383       .  S
C213        F219   1.368       .  S
C216        F222   1.383       .  S
C216        F474   1.383       .  S
C216        F475   1.383       .  S
F220        C724   1.383       .  S
F221        C724   1.383       .  S
C223        C224   1.407       .  A
C223        C228   1.399       .  A
C223        H230   1.073       .  S
C224        C225   1.427       .  A
C225        C226   1.407       .  A
C225        C232   1.508       .  S
C226        C227   1.397       .  A
C226        H231   1.085       .  S
C227        C228   1.415       .  A
C228        C229   1.521       .  S
C229        F233   1.382       .  S
C229        F235   1.374   1_554  S
C229        F742   1.383       .  S
C232        F236   1.371       .  S
C232        F237   1.382       .  S
C232        F238   1.384       .  S
F234        C483   1.383       .  S
C239        C240   1.405       .  A
C239        C244   1.408       .  A
C239        H246   1.073       .  S
C240        C241   1.424       .  A
C241        C242   1.403       .  A
C241        C248   1.510       .  S
C242        C243   1.397       .  A
C242        H247   1.083       .  S
C243        C244   1.418       .  A
C244        C245   1.521       .  S
C245        F249   1.383       .  S
C245        F250   1.382       .  S
C245        F251   1.382       .  S
C248        F252   1.367       .  S
C248        F253   1.376       .  S
C248        F254   1.385       .  S
C255        H256   1.111       .  S
C255        C261   1.560       .  S
C255        C260   1.550       .  S
C255        C259   1.554       .  S
C257        H258   1.107       .  S
C257        C263   1.555       .  S
C257        C262   1.541       .  S
C257        C264   1.541       .  S
C259        C262   1.376       .  D
C259        C465   1.517       .  S
C260        C263   1.381       .  D
C260        C430   1.508       .  S
C261        C264   1.383       .  D
C261        C494   1.505       .  S
C262        C449   1.490       .  S
C263        C417   1.507       .  S
C264        C478   1.515       .  S
C265        H266   1.111       .  S
C265        C271   1.536       .  S
C265        C270   1.554       .  S
C265        C269   1.544       .  S
C267        H268   1.108       .  S
C267        C273   1.539       .  S
C267        C272   1.548       .  S
C267        C274   1.547       .  S
C269        C272   1.376       .  D
C269        C334   1.492       .  S
C270        C273   1.383       .  D
C270        C401   1.499       .  S
C271        C274   1.376       .  D
C271        C350   1.507       .  S
C272        C318   1.501       .  S
C273        C385   1.507       .  S
C274        C366   1.490       .  S
O275       Cu283   2.011       .  S
O275        C285   1.280       .  A
O276      Cu2061   1.999   1_455  S
O276        C286   1.279       .  A
O277       Cu537   2.003       .  S
O277        C287   1.273       .  A
O278      Cu1807   1.996   1_455  S
O278        C288   1.277       .  A
O279      Cu1808   2.025       .  S
O279        C288   1.279       .  A
O280       Cu538   2.018       .  S
O280        C287   1.282       .  A
O281      Cu2062   1.985       .  S
O281        C286   1.272       .  A
O282       Cu284   1.990       .  S
O282        C285   1.272       .  A
Cu283      O1546   1.998       .  S
Cu283      O1802   2.000       .  S
Cu283      Cu284   2.365       .  S
Cu284      O1803   2.020       .  S
Cu284      O1551   1.985       .  S
C285        C369   1.495       .  S
C286        C433   1.470       .  S
C287        C353   1.498       .  S
C288        C414   1.492       .  S
O289       Cu551   2.006       .  S
O289        C299   1.278       .  A
O290       Cu297   1.997       .  S
O290        C300   1.277       .  A
O291       Cu297   1.983       .  S
O291        C301   1.273       .  A
O292       Cu551   1.999       .  S
O292        C302   1.277       .  A
O293       Cu552   2.020       .  S
O293        C302   1.278       .  A
O294       Cu298   2.003       .  S
O294        C301   1.278       .  A
O295       Cu298   2.016       .  S
O295        C300   1.277       .  A
O296       Cu552   2.020       .  S
O296        C299   1.278       .  A
Cu297      Cu298   2.368       .  S
C299        C462   1.487       .  S
C300        C382   1.476       .  S
C301        C446   1.477       .  S
C302        C398   1.493       .  S
O303      Cu1073   1.989       .  S
O303        C313   1.274       .  A
O304       Cu565   1.978   1_545  S
O304        C314   1.271       .  A
O305      Cu1327   2.008       .  S
O305        C315   1.281       .  A
O306       Cu311   2.009   1_545  S
O306        C316   1.279       .  A
O307       Cu312   1.998       .  S
O307        C316   1.275       .  A
O308      Cu1328   1.997       .  S
O308        C315   1.273       .  A
O309       Cu566   2.012       .  S
O309        C314   1.280       .  A
O310      Cu1074   2.018       .  S
O310        C313   1.279       .  A
Cu311      O1065   1.987       .  S
Cu311       O813   2.004       .  S
Cu311      Cu312   2.372   1_565  S
Cu312       O816   1.995   1_545  S
Cu312      O1072   2.020   1_545  S
C313        C481   1.474       .  S
C314        C337   1.473       .  S
C315        C497   1.482       .  S
C316        C321   1.477       .  S
C317        C318   1.406       .  A
C317        C322   1.403       .  A
C317        H324   1.083       .  S
C318        C319   1.429       .  A
C319        C320   1.403       .  A
C319        C326   1.517       .  S
C320        C321   1.398       .  A
C320        H325   1.085       .  S
C321        C322   1.418       .  A
C322        C323   1.521       .  S
C323        F327   1.385       .  S
C323        F329   1.382       .  S
C326        F330   1.371       .  S
C326        F331   1.383       .  S
C326        F332   1.384       .  S
F328        C577   1.381       .  S
C333        C334   1.405       .  A
C333        C338   1.400       .  A
C333        H340   1.083       .  S
C334        C335   1.427       .  A
C335        C336   1.403       .  A
C335        C342   1.518       .  S
C336        C337   1.399       .  A
C336        H341   1.085       .  S
C337        C338   1.418       .  A
C338        C339   1.523       .  S
C339        F343   1.385       .  S
C339        F598   1.382       .  S
C339        F345   1.382       .  S
C342        F346   1.384       .  S
C342        F347   1.373       .  S
C342        F348   1.383       .  S
C349        C350   1.403       .  A
C349        C354   1.413       .  A
C349        H356   1.077       .  S
C350        C351   1.423       .  A
C351        C352   1.402       .  A
C351        C358   1.510       .  S
C352        C353   1.400       .  A
C352        H357   1.081       .  S
C353        C354   1.426       .  A
C354        C355   1.520       .  S
C355        F359   1.385       .  S
C355        F360   1.383       .  S
C355        F361   1.383       .  S
C358        F362   1.374       .  S
C358        F363   1.372       .  S
C358        F364   1.385       .  S
C365        C366   1.397       .  A
C365        C370   1.407       .  A
C365        H372   1.079       .  S
C366        C367   1.417       .  A
C367        C368   1.403       .  A
C367        C374   1.512       .  S
C368        C369   1.405       .  A
C368        H373   1.082       .  S
C369        C370   1.428       .  A
C370        C371   1.521       .  S
C371        F375   1.384       .  S
C371        F376   1.383       .  S
C374        F378   1.385       .  S
C374        F379   1.377       .  S
C374        F380   1.379       .  S
F377        C625   1.383       .  S
C381        C382   1.395       .  A
C381        C386   1.398       .  A
C381        H388   1.085       .  S
C382        C383   1.415       .  A
C383        C384   1.409       .  A
C383        C390   1.517       .  S
C384        C385   1.410       .  A
C384        H389   1.079       .  S
C385        C386   1.426       .  A
C386        C387   1.513       .  S
C387        F391   1.368       .  S
C387        F392   1.383       .  S
C387        F393   1.385       .  S
C390        F394   1.384       .  S
C390        F395   1.382       .  S
C390        F396   1.385       .  S
C397        C398   1.405       .  A
C397        C402   1.404       .  A
C397        H404   1.085       .  S
C398        C399   1.422       .  A
C399        C400   1.408       .  A
C399        C406   1.520       .  S
C400        C401   1.404       .  A
C400        H405   1.080       .  S
C401        C402   1.421       .  A
C402        C403   1.514       .  S
C403        F407   1.372       .  S
C403        F408   1.383       .  S
C403        F409   1.384       .  S
C406        F410   1.384       .  S
C406        F411   1.383       .  S
C406        F412   1.384       .  S
C413        C414   1.402       .  A
C413        C418   1.402       .  A
C413        H420   1.085       .  S
C414        C415   1.417       .  A
C415        C416   1.412       .  A
C415        C422   1.517       .  S
C416        C417   1.407       .  A
C416        H421   1.072       .  S
C417        C418   1.425       .  A
C418        C419   1.515       .  S
C419        F423   1.384       .  S
C419        F424   1.378       .  S
C419        F425   1.373       .  S
C422        F426   1.383       .  S
C422        F427   1.383       .  S
C422        F428   1.384       .  S
C429        C430   1.410       .  A
C429        C434   1.403       .  A
C429        H436   1.076       .  S
C430        C431   1.428       .  A
C431        C432   1.398       .  A
C431        C438   1.505       .  S
C432        C433   1.393       .  A
C432        H437   1.086       .  S
C433        C434   1.413       .  A
C434        C435   1.521       .  S
C435        F439   1.385       .  S
C435        F440   1.382       .  S
C435        F441   1.384       .  S
C438        F442   1.383       .  S
C438        F443   1.355       .  S
C438        F444   1.385       .  S
C445        C446   1.402       .  A
C445        C450   1.403       .  A
C445        H452   1.085       .  S
C446        C447   1.418       .  A
C447        C448   1.399       .  A
C447        C454   1.523       .  S
C448        C449   1.405       .  A
C448        H453   1.082       .  S
C449        C450   1.424       .  A
C450        C451   1.517       .  S
C451        F455   1.384       .  S
C451        F456   1.369       .  S
C451        F457   1.384       .  S
C454        F458   1.383       .  S
C454        F460   1.385       .  S
F459        C708   1.383       .  S
C461        C462   1.397       .  A
C461        C466   1.404       .  A
C461        H468   1.085       .  S
C462        C463   1.419       .  A
C463        C464   1.412       .  A
C463        C470   1.519       .  S
C464        C465   1.407       .  A
C464        H469   1.073       .  S
C465        C466   1.429       .  A
C466        C467   1.511       .  S
C467        F471   1.384       .  S
C467        F472   1.383       .  S
C467        F473   1.367       .  S
C470        F728   1.383       .  S
C470        F729   1.383       .  S
C470        F476   1.383       .  S
C477        C478   1.408       .  A
C477        C482   1.399       .  A
C477        H484   1.073       .  S
C478        C479   1.426       .  A
C479        C480   1.407       .  A
C479        C486   1.508       .  S
C480        C481   1.398       .  A
C480        H485   1.085       .  S
C481        C482   1.415       .  A
C482        C483   1.522       .  S
C483        F487   1.382       .  S
C483        F489   1.375       .  S
C486        F490   1.371       .  S
C486        F491   1.382       .  S
C486        F492   1.384       .  S
F488        C737   1.383       .  S
C493        C494   1.405       .  A
C493        C498   1.409       .  A
C493        H500   1.075       .  S
C494        C495   1.425       .  A
C495        C496   1.403       .  A
C495        C502   1.509       .  S
C496        C497   1.397       .  A
C496        H501   1.083       .  S
C497        C498   1.419       .  A
C498        C499   1.521       .  S
C499        F503   1.383       .  S
C499        F504   1.382       .  S
C499        F505   1.382       .  S
C502        F506   1.367       .  S
C502        F507   1.375       .  S
C502        F508   1.385       .  S
C509        H510   1.111       .  S
C509        C515   1.562       .  S
C509        C514   1.549       .  S
C509        C513   1.554       .  S
C511        H512   1.107       .  S
C511        C517   1.555       .  S
C511        C516   1.540       .  S
C511        C518   1.540       .  S
C513        C516   1.376       .  D
C513        C719   1.515       .  S
C514        C517   1.381       .  D
C514        C684   1.510       .  S
C515        C518   1.383       .  D
C515        C748   1.504       .  S
C516        C703   1.491       .  S
C517        C671   1.506       .  S
C518        C732   1.516       .  S
C519        H520   1.110       .  S
C519        C525   1.533       .  S
C519        C524   1.553       .  S
C519        C523   1.546       .  S
C521        H522   1.109       .  S
C521        C527   1.538       .  S
C521        C526   1.549       .  S
C521        C528   1.550       .  S
C523        C526   1.376       .  D
C523        C588   1.490       .  S
C524        C527   1.383       .  D
C524        C655   1.497       .  S
C525        C528   1.375       .  D
C525        C604   1.512       .  S
C526        C572   1.504       .  S
C527        C639   1.508       .  S
C528        C620   1.484       .  S
O529       Cu537   2.009       .  S
O529        C539   1.280       .  A
O530      Cu1553   2.001   1_456  S
O530        C540   1.279       .  A
O531        C541   1.273       .  A
O532      Cu2061   1.994   1_455  S
O532        C542   1.277       .  A
O533      Cu2062   2.025       .  S
O533        C542   1.279       .  A
O534        C541   1.283       .  A
O535      Cu1554   1.992   1_556  S
O535        C540   1.273       .  A
O536       Cu538   1.993       .  S
O536        C539   1.272       .  A
Cu537      O1800   2.001       .  S
Cu537      O2056   1.998       .  S
Cu537      Cu538   2.364       .  S
Cu538      O2057   2.022       .  S
Cu538      O1805   1.986       .  S
C539        C623   1.494       .  S
C540        C687   1.473       .  S
C541        C607   1.491       .  S
C542        C668   1.490       .  S
O543        C553   1.278       .  A
O544       Cu551   1.993       .  S
O544        C554   1.276       .  A
O545       Cu551   1.988       .  S
O545        C555   1.274       .  A
O546        C556   1.277       .  A
O547        C556   1.278       .  A
O548       Cu552   2.002       .  S
O548        C555   1.278       .  A
O549       Cu552   2.011       .  S
O549        C554   1.277       .  A
O550        C553   1.277       .  A
Cu551      Cu552   2.369       .  S
C553        C716   1.486       .  S
C554        C636   1.471       .  S
C555        C700   1.478       .  S
C556        C652   1.493       .  S
O557      Cu1327   1.987       .  S
O557        C567   1.274       .  A
O558        C568   1.272       .  A
O559       Cu819   2.006       .  S
O559        C569   1.281       .  A
O560       Cu565   2.014   1_545  S
O560        C570   1.280       .  A
O561       Cu566   1.999       .  S
O561        C570   1.275       .  A
O562       Cu820   1.995       .  S
O562        C569   1.273       .  A
O563        C568   1.279       .  A
O564      Cu1328   2.018       .  S
O564        C567   1.279       .  A
Cu565      O1319   1.985       .  S
Cu565      O1067   2.009       .  S
Cu565      Cu566   2.372   1_565  S
Cu566      O1070   1.996   1_545  S
Cu566      O1326   2.020   1_545  S
C567        C735   1.473       .  S
C568        C591   1.471       .  S
C569        C751   1.481       .  S
C570        C575   1.480       .  S
C571        C572   1.406       .  A
C571        C576   1.405       .  A
C571        H578   1.083       .  S
C572        C573   1.430       .  A
C573        C574   1.404       .  A
C573        C580   1.518       .  S
C574        C575   1.398       .  A
C574        H579   1.085       .  S
C575        C576   1.419       .  A
C576        C577   1.522       .  S
C577        F581   1.385       .  S
C577        F583   1.382       .  S
C580        F584   1.372       .  S
C580        F585   1.383       .  S
C580        F586   1.384       .  S
C587        C588   1.406       .  A
C587        C592   1.400       .  A
C587        H594   1.083       .  S
C588        C589   1.428       .  A
C589        C590   1.402       .  A
C589        C596   1.519       .  S
C590        C591   1.399       .  A
C590        H595   1.085       .  S
C591        C592   1.417       .  A
C592        C593   1.523       .  S
C593        F597   1.385       .  S
C593        F599   1.382       .  S
C596        F600   1.385       .  S
C596        F601   1.373       .  S
C596        F602   1.383       .  S
C603        C604   1.405       .  A
C603        C608   1.412       .  A
C603        H610   1.074       .  S
C604        C605   1.424       .  A
C605        C606   1.401       .  A
C605        C612   1.507       .  S
C606        C607   1.397       .  A
C606        H611   1.082       .  S
C607        C608   1.423       .  A
C608        C609   1.520       .  S
C609        F613   1.385       .  S
C609        F614   1.384       .  S
C609        F615   1.383       .  S
C612        F616   1.371       .  S
C612        F617   1.375       .  S
C612        F618   1.385       .  S
C619        C620   1.397       .  A
C619        C624   1.408       .  A
C619        H626   1.082       .  S
C620        C621   1.416       .  A
C621        C622   1.401       .  A
C621        C628   1.514       .  S
C622        C623   1.405       .  A
C622        H627   1.083       .  S
C623        C624   1.429       .  A
C624        C625   1.520       .  S
C625        F629   1.385       .  S
C625        F630   1.382       .  S
C628        F632   1.385       .  S
C628        F633   1.376       .  S
C628        F634   1.381       .  S
C635        C636   1.394       .  A
C635        C640   1.398       .  A
C635        H642   1.086       .  S
C636        C637   1.413       .  A
C637        C638   1.407       .  A
C637        C644   1.517       .  S
C638        C639   1.411       .  A
C638        H643   1.078       .  S
C639        C640   1.427       .  A
C640        C641   1.513       .  S
C641        F645   1.368       .  S
C641        F646   1.383       .  S
C641        F647   1.385       .  S
C644        F648   1.384       .  S
C644        F649   1.382       .  S
C644        F650   1.385       .  S
C651        C652   1.407       .  A
C651        C656   1.405       .  A
C651        H658   1.084       .  S
C652        C653   1.422       .  A
C653        C654   1.407       .  A
C653        C660   1.521       .  S
C654        C655   1.405       .  A
C654        H659   1.081       .  S
C655        C656   1.421       .  A
C656        C657   1.515       .  S
C657        F661   1.373       .  S
C657        F662   1.383       .  S
C657        F663   1.384       .  S
C660        F664   1.384       .  S
C660        F665   1.383       .  S
C660        F666   1.385       .  S
C667        C668   1.401       .  A
C667        C672   1.401       .  A
C667        H674   1.085       .  S
C668        C669   1.417       .  A
C669        C670   1.412       .  A
C669        C676   1.517       .  S
C670        C671   1.407       .  A
C670        H675   1.073       .  S
C671        C672   1.425       .  A
C672        C673   1.515       .  S
C673        F677   1.384       .  S
C673        F678   1.378       .  S
C673        F679   1.373       .  S
C676        F680   1.383       .  S
C676        F681   1.383       .  S
C676        F682   1.384       .  S
C683        C684   1.411       .  A
C683        C688   1.405       .  A
C683        H690   1.077       .  S
C684        C685   1.428       .  A
C685        C686   1.398       .  A
C685        C692   1.505       .  S
C686        C687   1.393       .  A
C686        H691   1.086       .  S
C687        C688   1.415       .  A
C688        C689   1.521       .  S
C689        F693   1.385       .  S
C689        F694   1.382       .  S
C689        F695   1.384       .  S
C692        F696   1.383       .  S
C692        F697   1.356       .  S
C692        F698   1.385       .  S
C699        C700   1.403       .  A
C699        C704   1.404       .  A
C699        H706   1.085       .  S
C700        C701   1.418       .  A
C701        C702   1.398       .  A
C701        C708   1.522       .  S
C702        C703   1.405       .  A
C702        H707   1.082       .  S
C703        C704   1.424       .  A
C704        C705   1.517       .  S
C705        F709   1.384       .  S
C705        F710   1.370       .  S
C705        F711   1.384       .  S
C708        F712   1.383       .  S
C708        F714   1.385       .  S
C715        C716   1.397       .  A
C715        C720   1.403       .  A
C715        H722   1.085       .  S
C716        C717   1.418       .  A
C717        C718   1.412       .  A
C717        C724   1.519       .  S
C718        C719   1.407       .  A
C718        H723   1.072       .  S
C719        C720   1.428       .  A
C720        C721   1.512       .  S
C721        F725   1.384       .  S
C721        F726   1.383       .  S
C721        F727   1.368       .  S
C724        F730   1.383       .  S
C731        C732   1.407       .  A
C731        C736   1.398       .  A
C731        H738   1.072       .  S
C732        C733   1.427       .  A
C733        C734   1.408       .  A
C733        C740   1.508       .  S
C734        C735   1.398       .  A
C734        H739   1.085       .  S
C735        C736   1.414       .  A
C736        C737   1.522       .  S
C737        F741   1.382       .  S
C737        F743   1.374       .  S
C740        F744   1.371       .  S
C740        F745   1.382       .  S
C740        F746   1.384       .  S
C747        C748   1.405       .  A
C747        C752   1.408       .  A
C747        H754   1.074       .  S
C748        C749   1.425       .  A
C749        C750   1.403       .  A
C749        C756   1.510       .  S
C750        C751   1.397       .  A
C750        H755   1.083       .  S
C751        C752   1.418       .  A
C752        C753   1.521       .  S
C753        F757   1.384       .  S
C753        F758   1.382       .  S
C753        F759   1.382       .  S
C756        F760   1.367       .  S
C756        F761   1.375       .  S
C756        F762   1.385       .  S
C763        H764   1.111       .  S
C763        C769   1.560       .  S
C763        C768   1.550       .  S
C763        C767   1.555       .  S
C765        H766   1.106       .  S
C765        C771   1.554       .  S
C765        C770   1.539       .  S
C765        C772   1.540       .  S
C767        C770   1.376       .  D
C767        C973   1.514       .  S
C768        C771   1.380       .  D
C768        C938   1.511       .  S
C769        C772   1.383       .  D
C769       C1002   1.503       .  S
C770        C957   1.491       .  S
C771        C925   1.503       .  S
C772        C986   1.515       .  S
C773        H774   1.110       .  S
C773        C779   1.533       .  S
C773        C778   1.555       .  S
C773        C777   1.546       .  S
C775        H776   1.108       .  S
C775        C781   1.538       .  S
C775        C780   1.549       .  S
C775        C782   1.549       .  S
C777        C780   1.376       .  D
C777        C842   1.493       .  S
C778        C781   1.384       .  D
C778        C909   1.497       .  S
C779        C782   1.375       .  D
C779        C858   1.511       .  S
C780        C826   1.503       .  S
C781        C893   1.511       .  S
C782        C874   1.483       .  S
O783       Cu791   2.010   1_554  S
O783        C793   1.280       .  A
O784      Cu2569   2.004   1_455  S
O784        C794   1.280       .  A
O785      Cu1045   1.993       .  S
O785        C795   1.272       .  A
O786      Cu2315   1.988   1_455  S
O786        C796   1.276       .  A
O787      Cu2316   2.024       .  S
O787        C796   1.279       .  A
O788      Cu1046   2.018       .  S
O788        C795   1.282       .  A
O789      Cu2570   1.990       .  S
O789        C794   1.272       .  A
O790       Cu792   1.990   1_554  S
O790        C793   1.272       .  A
Cu791      O2816   2.002       .  S
Cu791      O1293   2.004       .  S
Cu791      O2310   2.000   1_556  S
Cu791      Cu792   2.363       .  S
Cu792      O2311   2.027   1_556  S
Cu792      O1296   2.021       .  S
Cu792      O2821   1.984       .  S
C793        C877   1.494       .  S
C794        C941   1.474       .  S
C795        C861   1.490       .  S
C796        C922   1.488       .  S
O797      Cu1059   2.002       .  S
O797        C807   1.278       .  A
O798       Cu805   1.998       .  S
O798        C808   1.277       .  A
O799       Cu805   1.987       .  S
O799        C809   1.274       .  A
O800      Cu1059   2.000       .  S
O800        C810   1.278       .  A
O801      Cu1060   2.022       .  S
O801        C810   1.278       .  A
O802       Cu806   2.002       .  S
O802        C809   1.278       .  A
O803       Cu806   2.013       .  S
O803        C808   1.277       .  A
O804      Cu1060   2.017       .  S
O804        C807   1.277       .  A
Cu805      O1305   2.011   1_554  S
Cu805      O1308   1.997   1_554  S
Cu805      Cu806   2.368       .  S
Cu806      O1309   2.021   1_554  S
Cu806      O1312   2.023   1_554  S
C807        C970   1.485       .  S
C808        C890   1.474       .  S
C809        C954   1.477       .  S
C810        C906   1.494       .  S
O811        C821   1.274       .  A
O812      Cu1073   1.982       .  S
O812        C822   1.272       .  A
O813        C823   1.280       .  A
O814       Cu819   2.012   1_554  S
O814        C824   1.280       .  A
O815       Cu820   1.999   1_554  S
O815        C824   1.275       .  A
O816        C823   1.273       .  A
O817      Cu1074   2.009       .  S
O817        C822   1.280       .  A
O818        C821   1.279       .  A
Cu819      O1320   1.979       .  S
Cu819      Cu820   2.372       .  S
Cu820      O1325   2.011       .  S
C821        C989   1.472       .  S
C822        C845   1.473       .  S
C823       C1005   1.481       .  S
C824        C829   1.480       .  S
C825        C826   1.406       .  A
C825        C830   1.405       .  A
C825        H832   1.083       .  S
C826        C827   1.429       .  A
C827        C828   1.404       .  A
C827        C834   1.518       .  S
C828        C829   1.398       .  A
C828        H833   1.085       .  S
C829        C830   1.419       .  A
C830        C831   1.522       .  S
C831        F835   1.385       .  S
C831       F1344   1.381       .  S
C831        F837   1.382       .  S
C834        F838   1.372       .  S
C834        F839   1.383       .  S
C834        F840   1.384       .  S
F836       C1085   1.380       .  S
C841        C842   1.407       .  A
C841        C846   1.400       .  A
C841        H848   1.083       .  S
C842        C843   1.429       .  A
C843        C844   1.403       .  A
C843        C850   1.520       .  S
C844        C845   1.399       .  A
C844        H849   1.085       .  S
C845        C846   1.417       .  A
C846        C847   1.523       .  S
C847        F851   1.385       .  S
C847       F1106   1.381       .  S
C847        F853   1.382       .  S
C850        F854   1.385       .  S
C850        F855   1.373       .  S
C850        F856   1.383       .  S
F852       C1355   1.382       .  S
C857        C858   1.405       .  A
C857        C862   1.412       .  A
C857        H864   1.074       .  S
C858        C859   1.424       .  A
C859        C860   1.401       .  A
C859        C866   1.507       .  S
C860        C861   1.397       .  A
C860        H865   1.082       .  S
C861        C862   1.422       .  A
C862        C863   1.520       .  S
C863        F867   1.385       .  S
C863        F868   1.384       .  S
C863        F869   1.383       .  S
C866        F870   1.371       .  S
C866        F871   1.375       .  S
C866        F872   1.385       .  S
C873        C874   1.397       .  A
C873        C878   1.409       .  A
C873        H880   1.083       .  S
C874        C875   1.417       .  A
C875        C876   1.400       .  A
C875        C882   1.514       .  S
C876        C877   1.404       .  A
C876        H881   1.083       .  S
C877        C878   1.429       .  A
C878        C879   1.521       .  S
C879        F883   1.384       .  S
C879        F884   1.382       .  S
C879       F1393   1.384       .  S
C882        F886   1.385       .  S
C882        F887   1.375       .  S
C882        F888   1.381       .  S
F885       C1133   1.384       .  S
C889        C890   1.394       .  A
C889        C894   1.399       .  A
C889        H896   1.085       .  S
C890        C891   1.413       .  A
C891        C892   1.408       .  A
C891        C898   1.517       .  S
C892        C893   1.411       .  A
C892        H897   1.077       .  S
C893        C894   1.427       .  A
C894        C895   1.513       .  S
C895        F899   1.368       .  S
C895        F900   1.383       .  S
C895        F901   1.385       .  S
C898        F902   1.384       .  S
C898        F903   1.382       .  S
C898        F904   1.385       .  S
C905        C906   1.407       .  A
C905        C910   1.405       .  A
C905        H912   1.084       .  S
C906        C907   1.423       .  A
C907        C908   1.408       .  A
C907        C914   1.521       .  S
C908        C909   1.405       .  A
C908        H913   1.081       .  S
C909        C910   1.421       .  A
C910        C911   1.515       .  S
C911        F915   1.373       .  S
C911        F916   1.383       .  S
C911        F917   1.384       .  S
C914        F918   1.384       .  S
C914        F919   1.383       .  S
C914        F920   1.385       .  S
C921        C922   1.401       .  A
C921        C926   1.400       .  A
C921        H928   1.085       .  S
C922        C923   1.416       .  A
C923        C924   1.410       .  A
C923        C930   1.517       .  S
C924        C925   1.406       .  A
C924        H929   1.072       .  S
C925        C926   1.424       .  A
C926        C927   1.515       .  S
C927        F931   1.384       .  S
C927        F932   1.378       .  S
C927        F933   1.373       .  S
C930        F934   1.383       .  S
C930        F935   1.382       .  S
C930        F936   1.384       .  S
C937        C938   1.411       .  A
C937        C942   1.406       .  A
C937        H944   1.077       .  S
C938        C939   1.430       .  A
C939        C940   1.398       .  A
C939        C946   1.505       .  S
C940        C941   1.393       .  A
C940        H945   1.086       .  S
C941        C942   1.415       .  A
C942        C943   1.521       .  S
C943        F947   1.385       .  S
C943        F948   1.382       .  S
C943        F949   1.384       .  S
C946        F950   1.383       .  S
C946        F951   1.354       .  S
C946        F952   1.385       .  S
C953        C954   1.403       .  A
C953        C958   1.404       .  A
C953        H960   1.085       .  S
C954        C955   1.418       .  A
C955        C956   1.398       .  A
C955        C962   1.522       .  S
C956        C957   1.405       .  A
C956        H961   1.082       .  S
C957        C958   1.424       .  A
C958        C959   1.517       .  S
C959        F963   1.383       .  S
C959        F964   1.370       .  S
C959        F965   1.384       .  S
C962        F966   1.383       .  S
C962       F1475   1.383       .  S
C962        F968   1.385       .  S
F967       C1216   1.384       .  S
C969        C970   1.397       .  A
C969        C974   1.402       .  A
C969        H976   1.085       .  S
C970        C971   1.418       .  A
C971        C972   1.411       .  A
C971        C978   1.519       .  S
C972        C973   1.407       .  A
C972        H977   1.073       .  S
C973        C974   1.428       .  A
C974        C975   1.511       .  S
C975        F979   1.384       .  S
C975        F980   1.383       .  S
C975        F981   1.367       .  S
C978       F1236   1.383       .  S
C978       F1237   1.383       .  S
C978        F984   1.383       .  S
F982       C1486   1.383       .  S
F983       C1486   1.383       .  S
C985        C986   1.408       .  A
C985        C990   1.397       .  A
C985        H992   1.072       .  S
C986        C987   1.427       .  A
C987        C988   1.407       .  A
C987        C994   1.508       .  S
C988        C989   1.398       .  A
C988        H993   1.085       .  S
C989        C990   1.414       .  A
C990        C991   1.522       .  S
C991        F995   1.382       .  S
C991       F1504   1.383       .  S
C991        F997   1.374   1_554  S
C994        F998   1.371       .  S
C994        F999   1.382       .  S
C994       F1000   1.384       .  S
F996       C1245   1.383       .  S
C1001      C1002   1.405       .  A
C1001      C1006   1.408       .  A
C1001      H1008   1.075       .  S
C1002      C1003   1.424       .  A
C1003      C1004   1.402       .  A
C1003      C1010   1.509       .  S
C1004      C1005   1.397       .  A
C1004      H1009   1.083       .  S
C1005      C1006   1.419       .  A
C1006      C1007   1.521       .  S
C1007      F1011   1.384       .  S
C1007      F1012   1.382       .  S
C1007      F1013   1.382       .  S
C1010      F1014   1.367       .  S
C1010      F1015   1.376       .  S
C1010      F1016   1.385       .  S
C1017      H1018   1.111       .  S
C1017      C1023   1.559       .  S
C1017      C1022   1.550       .  S
C1017      C1021   1.555       .  S
C1019      H1020   1.107       .  S
C1019      C1025   1.555       .  S
C1019      C1024   1.541       .  S
C1019      C1026   1.542       .  S
C1021      C1024   1.377       .  D
C1021      C1227   1.517       .  S
C1022      C1025   1.380       .  D
C1022      C1192   1.507       .  S
C1023      C1026   1.383       .  D
C1023      C1256   1.503       .  S
C1024      C1211   1.491       .  S
C1025      C1179   1.507       .  S
C1026      C1240   1.515       .  S
C1027      H1028   1.108       .  S
C1027      C1033   1.533       .  S
C1027      C1032   1.548       .  S
C1027      C1031   1.547       .  S
C1029      H1030   1.109       .  S
C1029      C1035   1.539       .  S
C1029      C1034   1.547       .  S
C1029      C1036   1.552       .  S
C1031      C1034   1.375       .  D
C1031      C1096   1.490       .  S
C1032      C1035   1.380       .  D
C1032      C1163   1.497       .  S
C1033      C1036   1.379       .  D
C1033      C1112   1.513       .  S
C1034      C1080   1.502       .  S
C1035      C1147   1.503       .  S
C1036      C1128   1.490       .  S
O1037     Cu1045   2.008       .  S
O1037      C1047   1.280       .  A
O1038     Cu2823   1.998   1_455  S
O1038      C1048   1.279       .  A
O1039     Cu1299   2.008       .  S
O1039      C1049   1.274       .  A
O1040     Cu2569   1.994   1_455  S
O1040      C1050   1.277       .  A
O1041     Cu2570   2.025       .  S
O1041      C1050   1.279       .  A
O1042     Cu1300   2.019       .  S
O1042      C1049   1.282       .  A
O1043     Cu2824   1.984       .  S
O1043      C1048   1.272       .  A
O1044     Cu1046   1.999       .  S
O1044      C1047   1.274       .  A
Cu1045     O2308   2.000       .  S
Cu1045     O2564   1.990       .  S
Cu1045    Cu1046   2.365       .  S
Cu1046     O2565   2.025       .  S
Cu1046     O2313   1.992       .  S
C1047      C1131   1.497       .  S
C1048      C1195   1.470       .  S
C1049      C1115   1.490       .  S
C1050      C1176   1.490       .  S
O1051     Cu1313   2.008       .  S
O1051      C1061   1.279       .  A
O1052     Cu1059   1.992       .  S
O1052      C1062   1.276       .  A
O1053     Cu1059   1.989       .  S
O1053      C1063   1.274       .  A
O1054     Cu1313   1.995       .  S
O1054      C1064   1.277       .  A
O1055     Cu1314   2.024       .  S
O1055      C1064   1.279       .  A
O1056     Cu1060   2.002       .  S
O1056      C1063   1.278       .  A
O1057     Cu1060   2.009       .  S
O1057      C1062   1.276       .  A
O1058     Cu1314   2.023       .  S
O1058      C1061   1.278       .  A
Cu1059    Cu1060   2.369       .  S
C1061      C1224   1.489       .  S
C1062      C1144   1.471       .  S
C1063      C1208   1.478       .  S
C1064      C1160   1.494       .  S
O1065      C1075   1.274       .  A
O1066     Cu1327   1.980       .  S
O1066      C1076   1.272       .  A
O1067      C1077   1.281       .  A
O1068     Cu1073   2.009       .  S
O1068      C1078   1.279       .  A
O1069     Cu1074   2.000       .  S
O1069      C1078   1.275       .  A
O1070      C1077   1.273       .  A
O1071     Cu1328   2.008       .  S
O1071      C1076   1.280       .  A
O1072      C1075   1.280       .  A
Cu1073    Cu1074   2.372       .  S
C1075      C1243   1.474       .  S
C1076      C1099   1.472       .  S
C1077      C1259   1.482       .  S
C1078      C1083   1.478       .  S
C1079      C1080   1.406       .  A
C1079      C1084   1.403       .  A
C1079      H1086   1.083       .  S
C1080      C1081   1.429       .  A
C1081      C1082   1.404       .  A
C1081      C1088   1.518       .  S
C1082      C1083   1.399       .  A
C1082      H1087   1.085       .  S
C1083      C1084   1.419       .  A
C1084      C1085   1.522       .  S
C1085      F1089   1.385       .  S
C1085      F1091   1.382       .  S
C1088      F1092   1.372       .  S
C1088      F1093   1.383       .  S
C1088      F1094   1.384       .  S
F1090      C1339   1.381       .  S
C1095      C1096   1.406       .  A
C1095      C1100   1.400       .  A
C1095      H1102   1.083       .  S
C1096      C1097   1.428       .  A
C1097      C1098   1.402       .  A
C1097      C1104   1.521       .  S
C1098      C1099   1.399       .  A
C1098      H1103   1.085       .  S
C1099      C1100   1.417       .  A
C1100      C1101   1.523       .  S
C1101      F1105   1.385       .  S
C1101      F1360   1.381       .  S
C1101      F1107   1.383       .  S
C1104      F1108   1.385       .  S
C1104      F1109   1.374       .  S
C1104      F1110   1.383       .  S
C1111      C1112   1.407       .  A
C1111      C1116   1.415       .  A
C1111      H1118   1.077       .  S
C1112      C1113   1.427       .  A
C1113      C1114   1.400       .  A
C1113      C1120   1.509       .  S
C1114      C1115   1.395       .  A
C1114      H1119   1.083       .  S
C1115      C1116   1.421       .  A
C1116      C1117   1.518       .  S
C1117      F1121   1.385       .  S
C1117      F1122   1.384       .  S
C1117      F1123   1.382       .  S
C1120      F1124   1.368       .  S
C1120      F1125   1.377       .  S
C1120      F1126   1.385       .  S
C1127      C1128   1.399       .  A
C1127      C1132   1.410       .  A
C1127      H1134   1.083       .  S
C1128      C1129   1.417       .  A
C1129      C1130   1.403       .  A
C1129      C1136   1.514       .  S
C1130      C1131   1.405       .  A
C1130      H1135   1.082       .  S
C1131      C1132   1.428       .  A
C1132      C1133   1.520       .  S
C1133      F1137   1.384       .  S
C1133      F1138   1.383       .  S
C1136      F1140   1.385       .  S
C1136      F1141   1.379       .  S
C1136      F1142   1.379       .  S
F1139      C1387   1.383       .  S
C1143      C1144   1.394       .  A
C1143      C1148   1.397       .  A
C1143      H1150   1.085       .  S
C1144      C1145   1.414       .  A
C1145      C1146   1.407       .  A
C1145      C1152   1.517       .  S
C1146      C1147   1.410       .  A
C1146      H1151   1.079       .  S
C1147      C1148   1.426       .  A
C1148      C1149   1.512       .  S
C1149      F1153   1.366       .  S
C1149      F1154   1.383       .  S
C1149      F1155   1.385       .  S
C1152      F1156   1.384       .  S
C1152      F1157   1.382       .  S
C1152      F1158   1.385       .  S
C1159      C1160   1.407       .  A
C1159      C1164   1.403       .  A
C1159      H1166   1.084       .  S
C1160      C1161   1.422       .  A
C1161      C1162   1.408       .  A
C1161      C1168   1.520       .  S
C1162      C1163   1.406       .  A
C1162      H1167   1.082       .  S
C1163      C1164   1.420       .  A
C1164      C1165   1.515       .  S
C1165      F1169   1.373       .  S
C1165      F1170   1.383       .  S
C1165      F1171   1.384       .  S
C1168      F1172   1.384       .  S
C1168      F1173   1.383       .  S
C1168      F1174   1.385       .  S
C1175      C1176   1.401       .  A
C1175      C1180   1.401       .  A
C1175      H1182   1.085       .  S
C1176      C1177   1.416       .  A
C1177      C1178   1.412       .  A
C1177      C1184   1.517       .  S
C1178      C1179   1.408       .  A
C1178      H1183   1.072       .  S
C1179      C1180   1.425       .  A
C1180      C1181   1.515       .  S
C1181      F1185   1.384       .  S
C1181      F1186   1.378       .  S
C1181      F1187   1.373       .  S
C1184      F1188   1.383       .  S
C1184      F1189   1.383       .  S
C1184      F1190   1.384       .  S
C1191      C1192   1.410       .  A
C1191      C1196   1.402       .  A
C1191      H1198   1.076       .  S
C1192      C1193   1.429       .  A
C1193      C1194   1.398       .  A
C1193      C1200   1.506       .  S
C1194      C1195   1.393       .  A
C1194      H1199   1.086       .  S
C1195      C1196   1.414       .  A
C1196      C1197   1.521       .  S
C1197      F1201   1.385       .  S
C1197      F1202   1.382       .  S
C1197      F1203   1.384       .  S
C1200      F1204   1.383       .  S
C1200      F1205   1.355       .  S
C1200      F1206   1.385       .  S
C1207      C1208   1.403       .  A
C1207      C1212   1.404       .  A
C1207      H1214   1.085       .  S
C1208      C1209   1.418       .  A
C1209      C1210   1.399       .  A
C1209      C1216   1.522       .  S
C1210      C1211   1.405       .  A
C1210      H1215   1.082       .  S
C1211      C1212   1.424       .  A
C1212      C1213   1.517       .  S
C1213      F1217   1.383       .  S
C1213      F1218   1.370       .  S
C1213      F1219   1.384       .  S
C1216      F1220   1.383       .  S
C1216      F1222   1.385       .  S
F1221      C1470   1.384       .  S
C1223      C1224   1.398       .  A
C1223      C1228   1.404       .  A
C1223      H1230   1.085       .  S
C1224      C1225   1.419       .  A
C1225      C1226   1.413       .  A
C1225      C1232   1.519       .  S
C1226      C1227   1.407       .  A
C1226      H1231   1.072       .  S
C1227      C1228   1.428       .  A
C1228      C1229   1.511       .  S
C1229      F1233   1.384       .  S
C1229      F1234   1.383       .  S
C1229      F1235   1.368       .  S
C1232      F1490   1.383       .  S
C1232      F1491   1.383       .  S
C1232      F1238   1.383       .  S
C1239      C1240   1.407       .  A
C1239      C1244   1.398       .  A
C1239      H1246   1.073       .  S
C1240      C1241   1.426       .  A
C1241      C1242   1.407       .  A
C1241      C1248   1.508       .  S
C1242      C1243   1.398       .  A
C1242      H1247   1.085       .  S
C1243      C1244   1.415       .  A
C1244      C1245   1.521       .  S
C1245      F1249   1.382       .  S
C1245      F1251   1.374       .  S
C1248      F1252   1.371       .  S
C1248      F1253   1.382       .  S
C1248      F1254   1.384       .  S
F1250      C1499   1.383       .  S
C1255      C1256   1.404       .  A
C1255      C1260   1.408       .  A
C1255      H1262   1.075       .  S
C1256      C1257   1.424       .  A
C1257      C1258   1.403       .  A
C1257      C1264   1.510       .  S
C1258      C1259   1.397       .  A
C1258      H1263   1.083       .  S
C1259      C1260   1.419       .  A
C1260      C1261   1.521       .  S
C1261      F1265   1.383       .  S
C1261      F1266   1.382       .  S
C1261      F1267   1.382       .  S
C1264      F1268   1.367       .  S
C1264      F1269   1.375       .  S
C1264      F1270   1.385       .  S
C1271      H1272   1.111       .  S
C1271      C1277   1.560       .  S
C1271      C1276   1.552       .  S
C1271      C1275   1.554       .  S
C1273      H1274   1.107       .  S
C1273      C1279   1.555       .  S
C1273      C1278   1.542       .  S
C1273      C1280   1.541       .  S
C1275      C1278   1.376       .  D
C1275      C1481   1.520       .  S
C1276      C1279   1.382       .  D
C1276      C1446   1.508       .  S
C1277      C1280   1.383       .  D
C1277      C1510   1.505       .  S
C1278      C1465   1.489       .  S
C1279      C1433   1.510       .  S
C1280      C1494   1.515       .  S
C1281      H1282   1.111       .  S
C1281      C1287   1.536       .  S
C1281      C1286   1.554       .  S
C1281      C1285   1.543       .  S
C1283      H1284   1.108       .  S
C1283      C1289   1.539       .  S
C1283      C1288   1.549       .  S
C1283      C1290   1.548       .  S
C1285      C1288   1.376       .  D
C1285      C1350   1.491       .  S
C1286      C1289   1.383       .  D
C1286      C1417   1.499       .  S
C1287      C1290   1.376       .  D
C1287      C1366   1.508       .  S
C1288      C1334   1.501       .  S
C1289      C1401   1.507       .  S
C1290      C1382   1.490       .  S
O1291     Cu1299   2.010       .  S
O1291      C1301   1.280       .  A
O1292     Cu2315   1.996   1_456  S
O1292      C1302   1.279       .  A
O1293      C1303   1.273       .  A
O1294     Cu2823   2.003   1_455  S
O1294      C1304   1.278       .  A
O1295     Cu2824   2.022       .  S
O1295      C1304   1.278       .  A
O1296      C1303   1.283       .  A
O1297     Cu2316   1.986   1_556  S
O1297      C1302   1.272       .  A
O1298     Cu1300   1.989       .  S
O1298      C1301   1.272       .  A
Cu1299     O2562   1.995       .  S
Cu1299     O2818   2.001       .  S
Cu1299    Cu1300   2.366       .  S
Cu1300     O2819   2.022       .  S
Cu1300     O2567   1.981       .  S
C1301      C1385   1.494       .  S
C1302      C1449   1.469       .  S
C1303      C1369   1.500       .  S
C1304      C1430   1.494       .  S
O1305      C1315   1.279       .  A
O1306     Cu1313   1.997       .  S
O1306      C1316   1.277       .  A
O1307     Cu1313   1.984       .  S
O1307      C1317   1.273       .  A
O1308      C1318   1.277       .  A
O1309      C1318   1.278       .  A
O1310     Cu1314   2.003       .  S
O1310      C1317   1.278       .  A
O1311     Cu1314   2.015       .  S
O1311      C1316   1.277       .  A
O1312      C1315   1.278       .  A
Cu1313    Cu1314   2.368       .  S
C1315      C1478   1.491       .  S
C1316      C1398   1.476       .  S
C1317      C1462   1.477       .  S
C1318      C1414   1.491       .  S
O1319      C1329   1.273       .  A
O1320      C1330   1.271       .  A
O1321      C1331   1.280       .  A
O1322     Cu1327   2.011       .  S
O1322      C1332   1.279       .  A
O1323     Cu1328   1.997       .  S
O1323      C1332   1.275       .  A
O1324      C1331   1.274       .  A
O1325      C1330   1.280       .  A
O1326      C1329   1.280       .  A
Cu1327    Cu1328   2.372       .  S
C1329      C1497   1.474       .  S
C1330      C1353   1.472       .  S
C1331      C1513   1.482       .  S
C1332      C1337   1.477       .  S
C1333      C1334   1.406       .  A
C1333      C1338   1.403       .  A
C1333      H1340   1.083       .  S
C1334      C1335   1.429       .  A
C1335      C1336   1.404       .  A
C1335      C1342   1.517       .  S
C1336      C1337   1.398       .  A
C1336      H1341   1.085       .  S
C1337      C1338   1.419       .  A
C1338      C1339   1.522       .  S
C1339      F1343   1.385       .  S
C1339      F1345   1.382       .  S
C1342      F1346   1.371       .  S
C1342      F1347   1.383       .  S
C1342      F1348   1.384       .  S
C1349      C1350   1.405       .  A
C1349      C1354   1.400       .  A
C1349      H1356   1.083       .  S
C1350      C1351   1.426       .  A
C1351      C1352   1.402       .  A
C1351      C1358   1.518       .  S
C1352      C1353   1.399       .  A
C1352      H1357   1.085       .  S
C1353      C1354   1.417       .  A
C1354      C1355   1.523       .  S
C1355      F1359   1.385       .  S
C1355      F1361   1.382       .  S
C1358      F1362   1.384       .  S
C1358      F1363   1.373       .  S
C1358      F1364   1.383       .  S
C1365      C1366   1.403       .  A
C1365      C1370   1.413       .  A
C1365      H1372   1.077       .  S
C1366      C1367   1.423       .  A
C1367      C1368   1.403       .  A
C1367      C1374   1.510       .  S
C1368      C1369   1.401       .  A
C1368      H1373   1.081       .  S
C1369      C1370   1.426       .  A
C1370      C1371   1.520       .  S
C1371      F1375   1.385       .  S
C1371      F1376   1.383       .  S
C1371      F1377   1.383       .  S
C1374      F1378   1.374       .  S
C1374      F1379   1.372       .  S
C1374      F1380   1.385       .  S
C1381      C1382   1.397       .  A
C1381      C1386   1.407       .  A
C1381      H1388   1.078       .  S
C1382      C1383   1.417       .  A
C1383      C1384   1.403       .  A
C1383      C1390   1.512       .  S
C1384      C1385   1.405       .  A
C1384      H1389   1.082       .  S
C1385      C1386   1.428       .  A
C1386      C1387   1.521       .  S
C1387      F1391   1.384       .  S
C1387      F1392   1.383       .  S
C1390      F1394   1.385       .  S
C1390      F1395   1.377       .  S
C1390      F1396   1.379       .  S
C1397      C1398   1.395       .  A
C1397      C1402   1.399       .  A
C1397      H1404   1.085       .  S
C1398      C1399   1.415       .  A
C1399      C1400   1.409       .  A
C1399      C1406   1.517       .  S
C1400      C1401   1.410       .  A
C1400      H1405   1.079       .  S
C1401      C1402   1.427       .  A
C1402      C1403   1.513       .  S
C1403      F1407   1.368       .  S
C1403      F1408   1.383       .  S
C1403      F1409   1.385       .  S
C1406      F1410   1.384       .  S
C1406      F1411   1.382       .  S
C1406      F1412   1.385       .  S
C1413      C1414   1.405       .  A
C1413      C1418   1.404       .  A
C1413      H1420   1.085       .  S
C1414      C1415   1.421       .  A
C1415      C1416   1.407       .  A
C1415      C1422   1.520       .  S
C1416      C1417   1.405       .  A
C1416      H1421   1.079       .  S
C1417      C1418   1.422       .  A
C1418      C1419   1.514       .  S
C1419      F1423   1.372       .  S
C1419      F1424   1.383       .  S
C1419      F1425   1.384       .  S
C1422      F1426   1.384       .  S
C1422      F1427   1.383       .  S
C1422      F1428   1.384       .  S
C1429      C1430   1.402       .  A
C1429      C1434   1.403       .  A
C1429      H1436   1.085       .  S
C1430      C1431   1.418       .  A
C1431      C1432   1.412       .  A
C1431      C1438   1.518       .  S
C1432      C1433   1.406       .  A
C1432      H1437   1.071       .  S
C1433      C1434   1.427       .  A
C1434      C1435   1.515       .  S
C1435      F1439   1.384       .  S
C1435      F1440   1.379       .  S
C1435      F1441   1.372       .  S
C1438      F1442   1.383       .  S
C1438      F1443   1.383       .  S
C1438      F1444   1.384       .  S
C1445      C1446   1.411       .  A
C1445      C1450   1.402       .  A
C1445      H1452   1.075       .  S
C1446      C1447   1.428       .  A
C1447      C1448   1.397       .  A
C1447      C1454   1.505       .  S
C1448      C1449   1.393       .  A
C1448      H1453   1.086       .  S
C1449      C1450   1.413       .  A
C1450      C1451   1.521       .  S
C1451      F1455   1.385       .  S
C1451      F1456   1.382       .  S
C1451      F1457   1.384       .  S
C1454      F1458   1.383       .  S
C1454      F1459   1.356       .  S
C1454      F1460   1.385       .  S
C1461      C1462   1.402       .  A
C1461      C1466   1.403       .  A
C1461      H1468   1.085       .  S
C1462      C1463   1.419       .  A
C1463      C1464   1.399       .  A
C1463      C1470   1.522       .  S
C1464      C1465   1.404       .  A
C1464      H1469   1.082       .  S
C1465      C1466   1.424       .  A
C1466      C1467   1.517       .  S
C1467      F1471   1.383       .  S
C1467      F1472   1.369       .  S
C1467      F1473   1.384       .  S
C1470      F1474   1.383       .  S
C1470      F1476   1.385       .  S
C1477      C1478   1.398       .  A
C1477      C1482   1.405       .  A
C1477      H1484   1.085       .  S
C1478      C1479   1.419       .  A
C1479      C1480   1.413       .  A
C1479      C1486   1.519       .  S
C1480      C1481   1.407       .  A
C1480      H1485   1.071       .  S
C1481      C1482   1.429       .  A
C1482      C1483   1.511       .  S
C1483      F1487   1.384       .  S
C1483      F1488   1.383       .  S
C1483      F1489   1.367       .  S
C1486      F1492   1.383       .  S
C1493      C1494   1.408       .  A
C1493      C1498   1.399       .  A
C1493      H1500   1.073       .  S
C1494      C1495   1.427       .  A
C1495      C1496   1.407       .  A
C1495      C1502   1.508       .  S
C1496      C1497   1.397       .  A
C1496      H1501   1.085       .  S
C1497      C1498   1.415       .  A
C1498      C1499   1.522       .  S
C1499      F1503   1.382       .  S
C1499      F1505   1.375       .  S
C1502      F1506   1.370       .  S
C1502      F1507   1.382       .  S
C1502      F1508   1.384       .  S
C1509      C1510   1.405       .  A
C1509      C1514   1.409       .  A
C1509      H1516   1.073       .  S
C1510      C1511   1.424       .  A
C1511      C1512   1.403       .  A
C1511      C1518   1.509       .  S
C1512      C1513   1.397       .  A
C1512      H1517   1.083       .  S
C1513      C1514   1.419       .  A
C1514      C1515   1.522       .  S
C1515      F1519   1.383       .  S
C1515      F1520   1.382       .  S
C1515      F1521   1.382       .  S
C1518      F1522   1.367       .  S
C1518      F1523   1.376       .  S
C1518      F1524   1.385       .  S
C1525      H1526   1.111       .  S
C1525      C1531   1.561       .  S
C1525      C1530   1.550       .  S
C1525      C1529   1.554       .  S
C1527      H1528   1.107       .  S
C1527      C1533   1.555       .  S
C1527      C1532   1.542       .  S
C1527      C1534   1.540       .  S
C1529      C1532   1.376       .  D
C1529      C1735   1.518       .  S
C1530      C1533   1.380       .  D
C1530      C1700   1.507       .  S
C1531      C1534   1.384       .  D
C1531      C1764   1.503       .  S
C1532      C1719   1.489       .  S
C1533      C1687   1.508       .  S
C1534      C1748   1.516       .  S
C1535      H1536   1.109       .  S
C1535      C1541   1.533       .  S
C1535      C1540   1.548       .  S
C1535      C1539   1.547       .  S
C1537      H1538   1.109       .  S
C1537      C1543   1.539       .  S
C1537      C1542   1.547       .  S
C1537      C1544   1.552       .  S
C1539      C1542   1.375       .  D
C1539      C1604   1.490       .  S
C1540      C1543   1.380       .  D
C1540      C1671   1.496       .  S
C1541      C1544   1.380       .  D
C1541      C1620   1.513       .  S
C1542      C1588   1.503       .  S
C1543      C1655   1.505       .  S
C1544      C1636   1.491       .  S
O1545     Cu1553   2.010       .  S
O1545      C1555   1.281       .  A
O1546      C1556   1.279       .  A
O1547     Cu1807   2.004       .  S
O1547      C1557   1.273       .  A
O1548      C1558   1.277       .  A
O1549      C1558   1.279       .  A
O1550     Cu1808   2.022   1_655  S
O1550      C1557   1.283       .  A
O1551      C1556   1.272       .  A
O1552     Cu1554   1.999   1_655  S
O1552      C1555   1.273       .  A
Cu1553     O2055   1.998   1_554  S
Cu1553    Cu1554   2.365   1_655  S
Cu1554     O2058   2.023   1_454  S
C1555      C1639   1.497       .  S
C1556      C1703   1.470       .  S
C1557      C1623   1.492       .  S
C1558      C1684   1.490       .  S
O1559     Cu1821   2.007       .  S
O1559      C1569   1.279       .  A
O1560     Cu1567   1.992       .  S
O1560      C1570   1.276       .  A
O1561     Cu1567   1.987       .  S
O1561      C1571   1.274       .  A
O1562     Cu1821   1.994       .  S
O1562      C1572   1.277       .  A
O1563     Cu1822   2.027       .  S
O1563      C1572   1.279       .  A
O1564     Cu1568   2.000       .  S
O1564      C1571   1.278       .  A
O1565     Cu1568   2.011       .  S
O1565      C1570   1.277       .  A
O1566     Cu1822   2.021       .  S
O1566      C1569   1.278       .  A
Cu1567     O2067   2.006   1_554  S
Cu1567     O2070   1.998   1_554  S
Cu1567    Cu1568   2.369       .  S
Cu1568     O2071   2.020   1_554  S
Cu1568     O2074   2.021   1_554  S
C1569      C1732   1.489       .  S
C1570      C1652   1.472       .  S
C1571      C1716   1.477       .  S
C1572      C1668   1.495       .  S
O1573     Cu2343   1.992   1_554  S
O1573      C1583   1.275       .  A
O1574     Cu1835   1.979   1_545  S
O1574      C1584   1.271       .  A
O1575     Cu2597   2.004       .  S
O1575      C1585   1.281       .  A
O1576     Cu1581   2.010   1_544  S
O1576      C1586   1.279       .  A
O1577     Cu1582   2.000   1_554  S
O1577      C1586   1.275       .  A
O1578     Cu2598   1.998       .  S
O1578      C1585   1.273       .  A
O1579     Cu1836   2.006       .  S
O1579      C1584   1.280       .  A
O1580     Cu2344   2.017   1_554  S
O1580      C1583   1.279       .  A
Cu1581     O2335   1.986   1_556  S
Cu1581     O2082   1.981   1_565  S
Cu1581     O2845   2.006       .  S
Cu1581    Cu1582   2.372   1_565  S
Cu1582     O2848   1.998   1_545  S
Cu1582     O2087   2.007       .  S
Cu1582     O2342   2.017   1_546  S
C1583      C1751   1.475       .  S
C1584      C1607   1.471       .  S
C1585      C1767   1.482       .  S
C1586      C1591   1.479       .  S
C1587      C1588   1.406       .  A
C1587      C1592   1.404       .  A
C1587      H1594   1.083       .  S
C1588      C1589   1.430       .  A
C1589      C1590   1.404       .  A
C1589      C1596   1.518       .  S
C1590      C1591   1.398       .  A
C1590      H1595   1.085       .  S
C1591      C1592   1.419       .  A
C1592      C1593   1.522       .  S
C1593      F1597   1.385       .  S
C1593      F2106   1.380       .  S
C1593      F1599   1.382       .  S
C1596      F1600   1.371       .  S
C1596      F1601   1.383       .  S
C1596      F1602   1.384       .  S
F1598      C1847   1.381       .  S
C1603      C1604   1.406       .  A
C1603      C1608   1.400       .  A
C1603      H1610   1.083       .  S
C1604      C1605   1.428       .  A
C1605      C1606   1.402       .  A
C1605      C1612   1.520       .  S
C1606      C1607   1.399       .  A
C1606      H1611   1.085       .  S
C1607      C1608   1.417       .  A
C1608      C1609   1.523       .  S
C1609      F1613   1.385       .  S
C1609      F1868   1.382       .  S
C1609      F1615   1.383       .  S
C1612      F1616   1.385       .  S
C1612      F1617   1.373       .  S
C1612      F1618   1.383       .  S
F1614      C2117   1.381       .  S
C1619      C1620   1.407       .  A
C1619      C1624   1.415       .  A
C1619      H1626   1.078       .  S
C1620      C1621   1.427       .  A
C1621      C1622   1.400       .  A
C1621      C1628   1.509       .  S
C1622      C1623   1.395       .  A
C1622      H1627   1.083       .  S
C1623      C1624   1.423       .  A
C1624      C1625   1.518       .  S
C1625      F1629   1.385       .  S
C1625      F1630   1.384       .  S
C1625      F1631   1.382       .  S
C1628      F1632   1.369       .  S
C1628      F1633   1.376       .  S
C1628      F1634   1.385       .  S
C1635      C1636   1.399       .  A
C1635      C1640   1.410       .  A
C1635      H1642   1.083       .  S
C1636      C1637   1.418       .  A
C1637      C1638   1.403       .  A
C1637      C1644   1.513       .  S
C1638      C1639   1.405       .  A
C1638      H1643   1.082       .  S
C1639      C1640   1.428       .  A
C1640      C1641   1.520       .  S
C1641      F1645   1.384       .  S
C1641      F1646   1.382       .  S
C1641      F2155   1.384       .  S
C1644      F1648   1.385       .  S
C1644      F1649   1.379       .  S
C1644      F1650   1.378       .  S
F1647      C1895   1.384       .  S
C1651      C1652   1.395       .  A
C1651      C1656   1.397       .  A
C1651      H1658   1.085       .  S
C1652      C1653   1.414       .  A
C1653      C1654   1.407       .  A
C1653      C1660   1.517       .  S
C1654      C1655   1.410       .  A
C1654      H1659   1.078       .  S
C1655      C1656   1.426       .  A
C1656      C1657   1.512       .  S
C1657      F1661   1.366       .  S
C1657      F1662   1.383       .  S
C1657      F1663   1.385       .  S
C1660      F1664   1.384       .  S
C1660      F1665   1.382       .  S
C1660      F1666   1.385       .  S
C1667      C1668   1.407       .  A
C1667      C1672   1.403       .  A
C1667      H1674   1.084       .  S
C1668      C1669   1.423       .  A
C1669      C1670   1.409       .  A
C1669      C1676   1.520       .  S
C1670      C1671   1.405       .  A
C1670      H1675   1.081       .  S
C1671      C1672   1.419       .  A
C1672      C1673   1.515       .  S
C1673      F1677   1.373       .  S
C1673      F1678   1.383       .  S
C1673      F1679   1.384       .  S
C1676      F1680   1.384       .  S
C1676      F1681   1.383       .  S
C1676      F1682   1.385       .  S
C1683      C1684   1.400       .  A
C1683      C1688   1.400       .  A
C1683      H1690   1.085       .  S
C1684      C1685   1.417       .  A
C1685      C1686   1.413       .  A
C1685      C1692   1.518       .  S
C1686      C1687   1.409       .  A
C1686      H1691   1.072       .  S
C1687      C1688   1.424       .  A
C1688      C1689   1.514       .  S
C1689      F1693   1.384       .  S
C1689      F1694   1.378       .  S
C1689      F1695   1.373       .  S
C1692      F1696   1.383       .  S
C1692      F1697   1.383       .  S
C1692      F1698   1.385       .  S
C1699      C1700   1.410       .  A
C1699      C1704   1.404       .  A
C1699      H1706   1.077       .  S
C1700      C1701   1.428       .  A
C1701      C1702   1.396       .  A
C1701      C1708   1.504       .  S
C1702      C1703   1.392       .  A
C1702      H1707   1.086       .  S
C1703      C1704   1.415       .  A
C1704      C1705   1.521       .  S
C1705      F1709   1.385       .  S
C1705      F1710   1.382       .  S
C1705      F1711   1.384       .  S
C1708      F1712   1.383       .  S
C1708      F1713   1.354       .  S
C1708      F1714   1.385       .  S
C1715      C1716   1.403       .  A
C1715      C1720   1.404       .  A
C1715      H1722   1.085       .  S
C1716      C1717   1.418       .  A
C1717      C1718   1.398       .  A
C1717      C1724   1.522       .  S
C1718      C1719   1.405       .  A
C1718      H1723   1.082       .  S
C1719      C1720   1.424       .  A
C1720      C1721   1.518       .  S
C1721      F1725   1.384       .  S
C1721      F1726   1.370       .  S
C1721      F1727   1.384       .  S
C1724      F1728   1.383       .  S
C1724      F2237   1.383       .  S
C1724      F1730   1.385       .  S
F1729      C1978   1.384       .  S
C1731      C1732   1.398       .  A
C1731      C1736   1.404       .  A
C1731      H1738   1.085       .  S
C1732      C1733   1.419       .  A
C1733      C1734   1.413       .  A
C1733      C1740   1.519       .  S
C1734      C1735   1.407       .  A
C1734      H1739   1.072       .  S
C1735      C1736   1.428       .  A
C1736      C1737   1.511       .  S
C1737      F1741   1.384       .  S
C1737      F1742   1.383       .  S
C1737      F1743   1.367       .  S
C1740      F1998   1.383       .  S
C1740      F1999   1.383       .  S
C1740      F1746   1.383       .  S
F1744      C2248   1.383       .  S
F1745      C2248   1.383       .  S
C1747      C1748   1.408       .  A
C1747      C1752   1.400       .  A
C1747      H1754   1.073       .  S
C1748      C1749   1.425       .  A
C1749      C1750   1.407       .  A
C1749      C1756   1.508       .  S
C1750      C1751   1.398       .  A
C1750      H1755   1.085       .  S
C1751      C1752   1.416       .  A
C1752      C1753   1.522       .  S
C1753      F1757   1.383       .  S
C1753      F2266   1.383       .  S
C1753      F1759   1.374   1_554  S
C1756      F1760   1.371       .  S
C1756      F1761   1.382       .  S
C1756      F1762   1.384       .  S
F1758      C2007   1.384       .  S
C1763      C1764   1.405       .  A
C1763      C1768   1.408       .  A
C1763      H1770   1.074       .  S
C1764      C1765   1.424       .  A
C1765      C1766   1.403       .  A
C1765      C1772   1.510       .  S
C1766      C1767   1.397       .  A
C1766      H1771   1.083       .  S
C1767      C1768   1.418       .  A
C1768      C1769   1.521       .  S
C1769      F1773   1.383       .  S
C1769      F1774   1.382       .  S
C1769      F1775   1.382       .  S
C1772      F1776   1.368       .  S
C1772      F1777   1.374       .  S
C1772      F1778   1.385       .  S
C1779      H1780   1.111       .  S
C1779      C1785   1.559       .  S
C1779      C1784   1.553       .  S
C1779      C1783   1.555       .  S
C1781      H1782   1.107       .  S
C1781      C1787   1.554       .  S
C1781      C1786   1.541       .  S
C1781      C1788   1.542       .  S
C1783      C1786   1.376       .  D
C1783      C1989   1.518       .  S
C1784      C1787   1.381       .  D
C1784      C1954   1.510       .  S
C1785      C1788   1.384       .  D
C1785      C2018   1.504       .  S
C1786      C1973   1.491       .  S
C1787      C1941   1.508       .  S
C1788      C2002   1.516       .  S
C1789      H1790   1.110       .  S
C1789      C1795   1.534       .  S
C1789      C1794   1.552       .  S
C1789      C1793   1.546       .  S
C1791      H1792   1.108       .  S
C1791      C1797   1.538       .  S
C1791      C1796   1.548       .  S
C1791      C1798   1.550       .  S
C1793      C1796   1.375       .  D
C1793      C1858   1.491       .  S
C1794      C1797   1.382       .  D
C1794      C1925   1.497       .  S
C1795      C1798   1.378       .  D
C1795      C1874   1.510       .  S
C1796      C1842   1.501       .  S
C1797      C1909   1.506       .  S
C1798      C1890   1.490       .  S
O1799     Cu1807   2.009       .  S
O1799      C1809   1.281       .  A
O1800      C1810   1.279       .  A
O1801     Cu2061   2.001       .  S
O1801      C1811   1.273       .  A
O1802      C1812   1.278       .  A
O1803      C1812   1.278       .  A
O1804     Cu2062   2.021   1_655  S
O1804      C1811   1.283       .  A
O1805      C1810   1.272       .  A
O1806     Cu1808   1.997   1_655  S
O1806      C1809   1.273       .  A
Cu1807    Cu1808   2.365   1_655  S
C1809      C1893   1.496       .  S
C1810      C1957   1.472       .  S
C1811      C1877   1.494       .  S
C1812      C1938   1.491       .  S
O1813     Cu2075   2.007       .  S
O1813      C1823   1.278       .  A
O1814     Cu1821   1.996       .  S
O1814      C1824   1.277       .  A
O1815     Cu1821   1.984       .  S
O1815      C1825   1.273       .  A
O1816     Cu2075   1.997       .  S
O1816      C1826   1.277       .  A
O1817     Cu2076   2.024       .  S
O1817      C1826   1.279       .  A
O1818     Cu1822   2.007       .  S
O1818      C1825   1.279       .  A
O1819     Cu1822   2.013       .  S
O1819      C1824   1.277       .  A
O1820     Cu2076   2.027       .  S
O1820      C1823   1.279       .  A
Cu1821    Cu1822   2.368       .  S
C1823      C1986   1.491       .  S
C1824      C1906   1.474       .  S
C1825      C1970   1.479       .  S
C1826      C1922   1.493       .  S
O1827     Cu2597   1.984       .  S
O1827      C1837   1.274       .  A
O1828     Cu2089   1.978   1_545  S
O1828      C1838   1.271       .  A
O1829     Cu2851   2.007       .  S
O1829      C1839   1.281       .  A
O1830     Cu1835   2.011   1_545  S
O1830      C1840   1.280       .  A
O1831     Cu1836   1.995       .  S
O1831      C1840   1.274       .  A
O1832     Cu2852   1.999       .  S
O1832      C1839   1.274       .  A
O1833     Cu2090   2.013       .  S
O1833      C1838   1.280       .  A
O1834     Cu2598   2.017       .  S
O1834      C1837   1.279       .  A
Cu1835     O2589   1.987       .  S
Cu1835     O2337   2.007       .  S
Cu1835    Cu1836   2.373   1_565  S
Cu1836     O2340   1.994   1_545  S
Cu1836     O2596   2.016   1_545  S
C1837      C2005   1.472       .  S
C1838      C1861   1.473       .  S
C1839      C2021   1.484       .  S
C1840      C1845   1.477       .  S
C1841      C1842   1.406       .  A
C1841      C1846   1.403       .  A
C1841      H1848   1.083       .  S
C1842      C1843   1.429       .  A
C1843      C1844   1.404       .  A
C1843      C1850   1.517       .  S
C1844      C1845   1.398       .  A
C1844      H1849   1.085       .  S
C1845      C1846   1.419       .  A
C1846      C1847   1.522       .  S
C1847      F1851   1.385       .  S
C1847      F1853   1.382       .  S
C1850      F1854   1.372       .  S
C1850      F1855   1.383       .  S
C1850      F1856   1.384       .  S
F1852      C2101   1.381       .  S
C1857      C1858   1.406       .  A
C1857      C1862   1.400       .  A
C1857      H1864   1.083       .  S
C1858      C1859   1.428       .  A
C1859      C1860   1.403       .  A
C1859      C1866   1.519       .  S
C1860      C1861   1.399       .  A
C1860      H1865   1.085       .  S
C1861      C1862   1.417       .  A
C1862      C1863   1.523       .  S
C1863      F1867   1.385       .  S
C1863      F2122   1.381       .  S
C1863      F1869   1.382       .  S
C1866      F1870   1.385       .  S
C1866      F1871   1.373       .  S
C1866      F1872   1.383       .  S
C1873      C1874   1.405       .  A
C1873      C1878   1.414       .  A
C1873      H1880   1.077       .  S
C1874      C1875   1.425       .  A
C1875      C1876   1.401       .  A
C1875      C1882   1.508       .  S
C1876      C1877   1.397       .  A
C1876      H1881   1.082       .  S
C1877      C1878   1.424       .  A
C1878      C1879   1.519       .  S
C1879      F1883   1.385       .  S
C1879      F1884   1.384       .  S
C1879      F1885   1.383       .  S
C1882      F1886   1.372       .  S
C1882      F1887   1.375       .  S
C1882      F1888   1.385       .  S
C1889      C1890   1.399       .  A
C1889      C1894   1.410       .  A
C1889      H1896   1.082       .  S
C1890      C1891   1.417       .  A
C1891      C1892   1.402       .  A
C1891      C1898   1.513       .  S
C1892      C1893   1.404       .  A
C1892      H1897   1.082       .  S
C1893      C1894   1.428       .  A
C1894      C1895   1.520       .  S
C1895      F1899   1.384       .  S
C1895      F1900   1.382       .  S
C1898      F1902   1.385       .  S
C1898      F1903   1.378       .  S
C1898      F1904   1.378       .  S
F1901      C2149   1.384       .  S
C1905      C1906   1.395       .  A
C1905      C1910   1.398       .  A
C1905      H1912   1.085       .  S
C1906      C1907   1.414       .  A
C1907      C1908   1.408       .  A
C1907      C1914   1.517       .  S
C1908      C1909   1.410       .  A
C1908      H1913   1.079       .  S
C1909      C1910   1.427       .  A
C1910      C1911   1.513       .  S
C1911      F1915   1.368       .  S
C1911      F1916   1.383       .  S
C1911      F1917   1.385       .  S
C1914      F1918   1.383       .  S
C1914      F1919   1.382       .  S
C1914      F1920   1.385       .  S
C1921      C1922   1.406       .  A
C1921      C1926   1.404       .  A
C1921      H1928   1.085       .  S
C1922      C1923   1.422       .  A
C1923      C1924   1.408       .  A
C1923      C1930   1.520       .  S
C1924      C1925   1.405       .  A
C1924      H1929   1.081       .  S
C1925      C1926   1.421       .  A
C1926      C1927   1.515       .  S
C1927      F1931   1.372       .  S
C1927      F1932   1.383       .  S
C1927      F1933   1.384       .  S
C1930      F1934   1.384       .  S
C1930      F1935   1.383       .  S
C1930      F1936   1.385       .  S
C1937      C1938   1.401       .  A
C1937      C1942   1.402       .  A
C1937      H1944   1.085       .  S
C1938      C1939   1.417       .  A
C1939      C1940   1.411       .  A
C1939      C1946   1.518       .  S
C1940      C1941   1.406       .  A
C1940      H1945   1.072       .  S
C1941      C1942   1.426       .  A
C1942      C1943   1.515       .  S
C1943      F1947   1.384       .  S
C1943      F1948   1.378       .  S
C1943      F1949   1.373       .  S
C1946      F1950   1.383       .  S
C1946      F1951   1.383       .  S
C1946      F1952   1.384       .  S
C1953      C1954   1.410       .  A
C1953      C1958   1.403       .  A
C1953      H1960   1.077       .  S
C1954      C1955   1.430       .  A
C1955      C1956   1.399       .  A
C1955      C1962   1.505       .  S
C1956      C1957   1.393       .  A
C1956      H1961   1.086       .  S
C1957      C1958   1.414       .  A
C1958      C1959   1.521       .  S
C1959      F1963   1.385       .  S
C1959      F1964   1.382       .  S
C1959      F1965   1.384       .  S
C1962      F1966   1.383       .  S
C1962      F1967   1.354       .  S
C1962      F1968   1.385       .  S
C1969      C1970   1.402       .  A
C1969      C1974   1.404       .  A
C1969      H1976   1.085       .  S
C1970      C1971   1.419       .  A
C1971      C1972   1.400       .  A
C1971      C1978   1.522       .  S
C1972      C1973   1.404       .  A
C1972      H1977   1.082       .  S
C1973      C1974   1.424       .  A
C1974      C1975   1.517       .  S
C1975      F1979   1.383       .  S
C1975      F1980   1.369       .  S
C1975      F1981   1.384       .  S
C1978      F1982   1.383       .  S
C1978      F1984   1.385       .  S
F1983      C2232   1.384       .  S
C1985      C1986   1.399       .  A
C1985      C1990   1.405       .  A
C1985      H1992   1.085       .  S
C1986      C1987   1.419       .  A
C1987      C1988   1.414       .  A
C1987      C1994   1.519       .  S
C1988      C1989   1.407       .  A
C1988      H1993   1.073       .  S
C1989      C1990   1.428       .  A
C1990      C1991   1.511       .  S
C1991      F1995   1.384       .  S
C1991      F1996   1.383       .  S
C1991      F1997   1.368       .  S
C1994      F2252   1.383       .  S
C1994      F2253   1.383       .  S
C1994      F2000   1.383       .  S
C2001      C2002   1.408       .  A
C2001      C2006   1.398       .  A
C2001      H2008   1.073       .  S
C2002      C2003   1.427       .  A
C2003      C2004   1.406       .  A
C2003      C2010   1.507       .  S
C2004      C2005   1.397       .  A
C2004      H2009   1.085       .  S
C2005      C2006   1.414       .  A
C2006      C2007   1.522       .  S
C2007      F2011   1.383       .  S
C2007      F2013   1.375       .  S
C2010      F2014   1.370       .  S
C2010      F2015   1.382       .  S
C2010      F2016   1.384       .  S
F2012      C2261   1.383       .  S
C2017      C2018   1.405       .  A
C2017      C2022   1.409       .  A
C2017      H2024   1.075       .  S
C2018      C2019   1.423       .  A
C2019      C2020   1.403       .  A
C2019      C2026   1.508       .  S
C2020      C2021   1.398       .  A
C2020      H2025   1.083       .  S
C2021      C2022   1.419       .  A
C2022      C2023   1.521       .  S
C2023      F2027   1.383       .  S
C2023      F2028   1.382       .  S
C2023      F2029   1.382       .  S
C2026      F2030   1.368       .  S
C2026      F2031   1.376       .  S
C2026      F2032   1.385       .  S
C2033      H2034   1.111       .  S
C2033      C2039   1.560       .  S
C2033      C2038   1.549       .  S
C2033      C2037   1.555       .  S
C2035      H2036   1.106       .  S
C2035      C2041   1.556       .  S
C2035      C2040   1.540       .  S
C2035      C2042   1.542       .  S
C2037      C2040   1.376       .  D
C2037      C2243   1.517       .  S
C2038      C2041   1.381       .  D
C2038      C2208   1.510       .  S
C2039      C2042   1.383       .  D
C2039      C2272   1.504       .  S
C2040      C2227   1.490       .  S
C2041      C2195   1.507       .  S
C2042      C2256   1.516       .  S
C2043      H2044   1.110       .  S
C2043      C2049   1.534       .  S
C2043      C2048   1.552       .  S
C2043      C2047   1.545       .  S
C2045      H2046   1.108       .  S
C2045      C2051   1.538       .  S
C2045      C2050   1.548       .  S
C2045      C2052   1.549       .  S
C2047      C2050   1.375       .  D
C2047      C2112   1.492       .  S
C2048      C2051   1.382       .  D
C2048      C2179   1.497       .  S
C2049      C2052   1.378       .  D
C2049      C2128   1.511       .  S
C2050      C2096   1.500       .  S
C2051      C2163   1.507       .  S
C2052      C2144   1.489       .  S
O2053     Cu2061   2.009       .  S
O2053      C2063   1.281       .  A
O2054      C2064   1.279       .  A
O2055      C2065   1.272       .  A
O2056      C2066   1.277       .  A
O2057      C2066   1.279       .  A
O2058      C2065   1.283       .  A
O2059      C2064   1.273       .  A
O2060     Cu2062   1.994   1_655  S
O2060      C2063   1.272       .  A
Cu2061    Cu2062   2.365   1_655  S
C2063      C2147   1.495       .  S
C2064      C2211   1.474       .  S
C2065      C2131   1.493       .  S
C2066      C2192   1.490       .  S
O2067      C2077   1.278       .  A
O2068     Cu2075   1.994       .  S
O2068      C2078   1.276       .  A
O2069     Cu2075   1.985       .  S
O2069      C2079   1.273       .  A
O2070      C2080   1.278       .  A
O2071      C2080   1.278       .  A
O2072     Cu2076   2.003       .  S
O2072      C2079   1.278       .  A
O2073     Cu2076   2.017       .  S
O2073      C2078   1.278       .  A
O2074      C2077   1.278       .  A
Cu2075    Cu2076   2.368       .  S
C2077      C2240   1.487       .  S
C2078      C2160   1.474       .  S
C2079      C2224   1.477       .  S
C2080      C2176   1.492       .  S
O2081     Cu2851   1.987       .  S
O2081      C2091   1.274       .  A
O2082      C2092   1.272       .  A
O2083     Cu2343   2.005       .  S
O2083      C2093   1.280       .  A
O2084     Cu2089   2.006   1_545  S
O2084      C2094   1.279       .  A
O2085     Cu2090   1.998       .  S
O2085      C2094   1.275       .  A
O2086     Cu2344   1.991       .  S
O2086      C2093   1.273       .  A
O2087      C2092   1.280       .  A
O2088     Cu2852   2.021       .  S
O2088      C2091   1.279       .  A
Cu2089     O2843   1.985       .  S
Cu2089     O2591   2.001       .  S
Cu2089    Cu2090   2.372   1_565  S
Cu2090     O2594   1.995   1_545  S
Cu2090     O2850   2.022   1_545  S
C2091      C2259   1.474       .  S
C2092      C2115   1.472       .  S
C2093      C2275   1.479       .  S
C2094      C2099   1.476       .  S
C2095      C2096   1.406       .  A
C2095      C2100   1.403       .  A
C2095      H2102   1.083       .  S
C2096      C2097   1.429       .  A
C2097      C2098   1.403       .  A
C2097      C2104   1.518       .  S
C2098      C2099   1.398       .  A
C2098      H2103   1.085       .  S
C2099      C2100   1.419       .  A
C2100      C2101   1.522       .  S
C2101      F2105   1.385       .  S
C2101      F2107   1.382       .  S
C2104      F2108   1.372       .  S
C2104      F2109   1.383       .  S
C2104      F2110   1.384       .  S
C2111      C2112   1.406       .  A
C2111      C2116   1.400       .  A
C2111      H2118   1.083       .  S
C2112      C2113   1.429       .  A
C2113      C2114   1.402       .  A
C2113      C2120   1.519       .  S
C2114      C2115   1.398       .  A
C2114      H2119   1.085       .  S
C2115      C2116   1.417       .  A
C2116      C2117   1.523       .  S
C2117      F2121   1.385       .  S
C2117      F2123   1.382       .  S
C2120      F2124   1.385       .  S
C2120      F2125   1.372       .  S
C2120      F2126   1.383       .  S
C2127      C2128   1.404       .  A
C2127      C2132   1.413       .  A
C2127      H2134   1.077       .  S
C2128      C2129   1.425       .  A
C2129      C2130   1.401       .  A
C2129      C2136   1.508       .  S
C2130      C2131   1.396       .  A
C2130      H2135   1.082       .  S
C2131      C2132   1.424       .  A
C2132      C2133   1.519       .  S
C2133      F2137   1.385       .  S
C2133      F2138   1.384       .  S
C2133      F2139   1.383       .  S
C2136      F2140   1.371       .  S
C2136      F2141   1.375       .  S
C2136      F2142   1.385       .  S
C2143      C2144   1.398       .  A
C2143      C2148   1.410       .  A
C2143      H2150   1.082       .  S
C2144      C2145   1.417       .  A
C2145      C2146   1.401       .  A
C2145      C2152   1.513       .  S
C2146      C2147   1.404       .  A
C2146      H2151   1.082       .  S
C2147      C2148   1.429       .  A
C2148      C2149   1.520       .  S
C2149      F2153   1.384       .  S
C2149      F2154   1.383       .  S
C2152      F2156   1.385       .  S
C2152      F2157   1.378       .  S
C2152      F2158   1.378       .  S
C2159      C2160   1.395       .  A
C2159      C2164   1.398       .  A
C2159      H2166   1.085       .  S
C2160      C2161   1.414       .  A
C2161      C2162   1.409       .  A
C2161      C2168   1.517       .  S
C2162      C2163   1.411       .  A
C2162      H2167   1.079       .  S
C2163      C2164   1.427       .  A
C2164      C2165   1.512       .  S
C2165      F2169   1.367       .  S
C2165      F2170   1.383       .  S
C2165      F2171   1.385       .  S
C2168      F2172   1.384       .  S
C2168      F2173   1.382       .  S
C2168      F2174   1.385       .  S
C2175      C2176   1.406       .  A
C2175      C2180   1.404       .  A
C2175      H2182   1.085       .  S
C2176      C2177   1.423       .  A
C2177      C2178   1.408       .  A
C2177      C2184   1.521       .  S
C2178      C2179   1.405       .  A
C2178      H2183   1.081       .  S
C2179      C2180   1.421       .  A
C2180      C2181   1.515       .  S
C2181      F2185   1.373       .  S
C2181      F2186   1.383       .  S
C2181      F2187   1.384       .  S
C2184      F2188   1.384       .  S
C2184      F2189   1.383       .  S
C2184      F2190   1.385       .  S
C2191      C2192   1.400       .  A
C2191      C2196   1.402       .  A
C2191      H2198   1.085       .  S
C2192      C2193   1.417       .  A
C2193      C2194   1.412       .  A
C2193      C2200   1.517       .  S
C2194      C2195   1.407       .  A
C2194      H2199   1.073       .  S
C2195      C2196   1.426       .  A
C2196      C2197   1.514       .  S
C2197      F2201   1.384       .  S
C2197      F2202   1.379       .  S
C2197      F2203   1.371       .  S
C2200      F2204   1.383       .  S
C2200      F2205   1.383       .  S
C2200      F2206   1.384       .  S
C2207      C2208   1.410       .  A
C2207      C2212   1.404       .  A
C2207      H2214   1.076       .  S
C2208      C2209   1.428       .  A
C2209      C2210   1.400       .  A
C2209      C2216   1.506       .  S
C2210      C2211   1.395       .  A
C2210      H2215   1.086       .  S
C2211      C2212   1.414       .  A
C2212      C2213   1.521       .  S
C2213      F2217   1.385       .  S
C2213      F2218   1.382       .  S
C2213      F2219   1.384       .  S
C2216      F2220   1.383       .  S
C2216      F2221   1.356       .  S
C2216      F2222   1.385       .  S
C2223      C2224   1.403       .  A
C2223      C2228   1.404       .  A
C2223      H2230   1.085       .  S
C2224      C2225   1.418       .  A
C2225      C2226   1.398       .  A
C2225      C2232   1.522       .  S
C2226      C2227   1.405       .  A
C2226      H2231   1.082       .  S
C2227      C2228   1.424       .  A
C2228      C2229   1.517       .  S
C2229      F2233   1.384       .  S
C2229      F2234   1.370       .  S
C2229      F2235   1.384       .  S
C2232      F2236   1.383       .  S
C2232      F2238   1.385       .  S
C2239      C2240   1.398       .  A
C2239      C2244   1.404       .  A
C2239      H2246   1.085       .  S
C2240      C2241   1.418       .  A
C2241      C2242   1.412       .  A
C2241      C2248   1.519       .  S
C2242      C2243   1.407       .  A
C2242      H2247   1.069       .  S
C2243      C2244   1.428       .  A
C2244      C2245   1.512       .  S
C2245      F2249   1.384       .  S
C2245      F2250   1.383       .  S
C2245      F2251   1.368       .  S
C2248      F2254   1.382       .  S
C2255      C2256   1.407       .  A
C2255      C2260   1.398       .  A
C2255      H2262   1.072       .  S
C2256      C2257   1.428       .  A
C2257      C2258   1.408       .  A
C2257      C2264   1.509       .  S
C2258      C2259   1.398       .  A
C2258      H2263   1.085       .  S
C2259      C2260   1.415       .  A
C2260      C2261   1.521       .  S
C2261      F2265   1.382       .  S
C2261      F2267   1.374       .  S
C2264      F2268   1.371       .  S
C2264      F2269   1.382       .  S
C2264      F2270   1.384       .  S
C2271      C2272   1.405       .  A
C2271      C2276   1.407       .  A
C2271      H2278   1.072       .  S
C2272      C2273   1.425       .  A
C2273      C2274   1.402       .  A
C2273      C2280   1.510       .  S
C2274      C2275   1.396       .  A
C2274      H2279   1.083       .  S
C2275      C2276   1.418       .  A
C2276      C2277   1.522       .  S
C2277      F2281   1.383       .  S
C2277      F2282   1.382       .  S
C2277      F2283   1.382       .  S
C2280      F2284   1.366       .  S
C2280      F2285   1.376       .  S
C2280      F2286   1.385       .  S
C2287      H2288   1.111       .  S
C2287      C2293   1.561       .  S
C2287      C2292   1.551       .  S
C2287      C2291   1.554       .  S
C2289      H2290   1.106       .  S
C2289      C2295   1.555       .  S
C2289      C2294   1.540       .  S
C2289      C2296   1.541       .  S
C2291      C2294   1.376       .  D
C2291      C2497   1.517       .  S
C2292      C2295   1.382       .  D
C2292      C2462   1.509       .  S
C2293      C2296   1.383       .  D
C2293      C2526   1.505       .  S
C2294      C2481   1.490       .  S
C2295      C2449   1.509       .  S
C2296      C2510   1.515       .  S
C2297      H2298   1.110       .  S
C2297      C2303   1.534       .  S
C2297      C2302   1.553       .  S
C2297      C2301   1.546       .  S
C2299      H2300   1.108       .  S
C2299      C2305   1.539       .  S
C2299      C2304   1.547       .  S
C2299      C2306   1.549       .  S
C2301      C2304   1.376       .  D
C2301      C2366   1.491       .  S
C2302      C2305   1.382       .  D
C2302      C2433   1.499       .  S
C2303      C2306   1.377       .  D
C2303      C2382   1.509       .  S
C2304      C2350   1.501       .  S
C2305      C2417   1.506       .  S
C2306      C2398   1.490       .  S
O2307     Cu2315   2.005       .  S
O2307      C2317   1.280       .  A
O2308      C2318   1.279       .  A
O2309     Cu2569   2.000       .  S
O2309      C2319   1.272       .  A
O2310      C2320   1.278       .  A
O2311      C2320   1.279       .  A
O2312     Cu2570   2.021   1_655  S
O2312      C2319   1.283       .  A
O2313      C2318   1.273       .  A
O2314     Cu2316   1.996   1_655  S
O2314      C2317   1.273       .  A
Cu2315     O2817   1.994   1_554  S
Cu2315    Cu2316   2.365   1_655  S
Cu2316     O2820   2.018   1_454  S
C2317      C2401   1.493       .  S
C2318      C2465   1.473       .  S
C2319      C2385   1.495       .  S
C2320      C2446   1.493       .  S
O2321     Cu2583   2.008       .  S
O2321      C2331   1.279       .  A
O2322     Cu2329   1.996       .  S
O2322      C2332   1.277       .  A
O2323     Cu2329   1.987       .  S
O2323      C2333   1.274       .  A
O2324     Cu2583   2.002       .  S
O2324      C2334   1.278       .  A
O2325     Cu2584   2.021       .  S
O2325      C2334   1.278       .  A
O2326     Cu2330   2.002       .  S
O2326      C2333   1.278       .  A
O2327     Cu2330   2.017       .  S
O2327      C2332   1.277       .  A
O2328     Cu2584   2.022       .  S
O2328      C2331   1.278       .  A
Cu2329     O2829   2.009   1_554  S
Cu2329     O2832   2.000   1_554  S
Cu2329    Cu2330   2.368       .  S
Cu2330     O2833   2.023   1_554  S
Cu2330     O2836   2.027   1_554  S
C2331      C2494   1.488       .  S
C2332      C2414   1.476       .  S
C2333      C2478   1.478       .  S
C2334      C2430   1.494       .  S
O2335      C2345   1.274       .  A
O2336     Cu2597   1.977       .  S
O2336      C2346   1.271       .  A
O2337      C2347   1.281       .  A
O2338     Cu2343   2.012   1_554  S
O2338      C2348   1.280       .  A
O2339     Cu2344   1.995   1_554  S
O2339      C2348   1.274       .  A
O2340      C2347   1.273       .  A
O2341     Cu2598   2.009       .  S
O2341      C2346   1.280       .  A
O2342      C2345   1.279       .  A
Cu2343     O2844   1.984       .  S
Cu2343    Cu2344   2.372       .  S
Cu2344     O2849   2.008       .  S
C2345      C2513   1.472       .  S
C2346      C2369   1.471       .  S
C2347      C2529   1.481       .  S
C2348      C2353   1.477       .  S
C2349      C2350   1.406       .  A
C2349      C2354   1.403       .  A
C2349      H2356   1.083       .  S
C2350      C2351   1.429       .  A
C2351      C2352   1.404       .  A
C2351      C2358   1.517       .  S
C2352      C2353   1.398       .  A
C2352      H2357   1.085       .  S
C2353      C2354   1.418       .  A
C2354      C2355   1.522       .  S
C2355      F2359   1.385       .  S
C2355      F2868   1.381       .  S
C2355      F2361   1.382       .  S
C2358      F2362   1.372       .  S
C2358      F2363   1.383       .  S
C2358      F2364   1.384       .  S
F2360      C2609   1.380       .  S
C2365      C2366   1.406       .  A
C2365      C2370   1.400       .  A
C2365      H2372   1.083       .  S
C2366      C2367   1.428       .  A
C2367      C2368   1.402       .  A
C2367      C2374   1.519       .  S
C2368      C2369   1.398       .  A
C2368      H2373   1.085       .  S
C2369      C2370   1.417       .  A
C2370      C2371   1.523       .  S
C2371      F2375   1.385       .  S
C2371      F2630   1.381       .  S
C2371      F2377   1.382       .  S
C2374      F2378   1.385       .  S
C2374      F2379   1.372       .  S
C2374      F2380   1.383       .  S
F2376      C2879   1.382       .  S
C2381      C2382   1.405       .  A
C2381      C2386   1.414       .  A
C2381      H2388   1.079       .  S
C2382      C2383   1.424       .  A
C2383      C2384   1.400       .  A
C2383      C2390   1.508       .  S
C2384      C2385   1.397       .  A
C2384      H2389   1.082       .  S
C2385      C2386   1.425       .  A
C2386      C2387   1.519       .  S
C2387      F2391   1.385       .  S
C2387      F2392   1.384       .  S
C2387      F2393   1.383       .  S
C2390      F2394   1.371       .  S
C2390      F2395   1.374       .  S
C2390      F2396   1.385       .  S
C2397      C2398   1.399       .  A
C2397      C2402   1.409       .  A
C2397      H2404   1.081       .  S
C2398      C2399   1.417       .  A
C2399      C2400   1.401       .  A
C2399      C2406   1.512       .  S
C2400      C2401   1.404       .  A
C2400      H2405   1.082       .  S
C2401      C2402   1.427       .  A
C2402      C2403   1.520       .  S
C2403      F2407   1.385       .  S
C2403      F2408   1.382       .  S
C2403      F2917   1.383       .  S
C2406      F2410   1.385       .  S
C2406      F2411   1.378       .  S
C2406      F2412   1.378       .  S
F2409      C2657   1.384       .  S
C2413      C2414   1.395       .  A
C2413      C2418   1.398       .  A
C2413      H2420   1.085       .  S
C2414      C2415   1.415       .  A
C2415      C2416   1.408       .  A
C2415      C2422   1.517       .  S
C2416      C2417   1.410       .  A
C2416      H2421   1.079       .  S
C2417      C2418   1.426       .  A
C2418      C2419   1.513       .  S
C2419      F2423   1.368       .  S
C2419      F2424   1.383       .  S
C2419      F2425   1.385       .  S
C2422      F2426   1.383       .  S
C2422      F2427   1.382       .  S
C2422      F2428   1.385       .  S
C2429      C2430   1.406       .  A
C2429      C2434   1.404       .  A
C2429      H2436   1.084       .  S
C2430      C2431   1.423       .  A
C2431      C2432   1.409       .  A
C2431      C2438   1.521       .  S
C2432      C2433   1.405       .  A
C2432      H2437   1.081       .  S
C2433      C2434   1.422       .  A
C2434      C2435   1.515       .  S
C2435      F2439   1.373       .  S
C2435      F2440   1.383       .  S
C2435      F2441   1.384       .  S
C2438      F2442   1.384       .  S
C2438      F2443   1.383       .  S
C2438      F2444   1.385       .  S
C2445      C2446   1.401       .  A
C2445      C2450   1.403       .  A
C2445      H2452   1.085       .  S
C2446      C2447   1.418       .  A
C2447      C2448   1.413       .  A
C2447      C2454   1.517       .  S
C2448      C2449   1.407       .  A
C2448      H2453   1.073       .  S
C2449      C2450   1.426       .  A
C2450      C2451   1.515       .  S
C2451      F2455   1.384       .  S
C2451      F2456   1.379       .  S
C2451      F2457   1.372       .  S
C2454      F2458   1.383       .  S
C2454      F2459   1.383       .  S
C2454      F2460   1.384       .  S
C2461      C2462   1.410       .  A
C2461      C2466   1.404       .  A
C2461      H2468   1.076       .  S
C2462      C2463   1.428       .  A
C2463      C2464   1.399       .  A
C2463      C2470   1.506       .  S
C2464      C2465   1.395       .  A
C2464      H2469   1.086       .  S
C2465      C2466   1.414       .  A
C2466      C2467   1.521       .  S
C2467      F2471   1.385       .  S
C2467      F2472   1.382       .  S
C2467      F2473   1.384       .  S
C2470      F2474   1.383       .  S
C2470      F2475   1.357       .  S
C2470      F2476   1.385       .  S
C2477      C2478   1.403       .  A
C2477      C2482   1.404       .  A
C2477      H2484   1.085       .  S
C2478      C2479   1.418       .  A
C2479      C2480   1.398       .  A
C2479      C2486   1.522       .  S
C2480      C2481   1.405       .  A
C2480      H2485   1.082       .  S
C2481      C2482   1.424       .  A
C2482      C2483   1.517       .  S
C2483      F2487   1.383       .  S
C2483      F2488   1.370       .  S
C2483      F2489   1.384       .  S
C2486      F2490   1.383       .  S
C2486      F2999   1.384       .  S
C2486      F2492   1.385       .  S
F2491      C2740   1.383       .  S
C2493      C2494   1.398       .  A
C2493      C2498   1.404       .  A
C2493      H2500   1.085       .  S
C2494      C2495   1.419       .  A
C2495      C2496   1.413       .  A
C2495      C2502   1.519       .  S
C2496      C2497   1.407       .  A
C2496      H2501   1.071       .  S
C2497      C2498   1.428       .  A
C2498      C2499   1.512       .  S
C2499      F2503   1.384       .  S
C2499      F2504   1.383       .  S
C2499      F2505   1.369       .  S
C2502      F2760   1.383       .  S
C2502      F2761   1.383       .  S
C2502      F2508   1.382       .  S
F2506      C3010   1.383       .  S
F2507      C3010   1.383       .  S
C2509      C2510   1.408       .  A
C2509      C2514   1.398       .  A
C2509      H2516   1.072       .  S
C2510      C2511   1.427       .  A
C2511      C2512   1.407       .  A
C2511      C2518   1.508       .  S
C2512      C2513   1.398       .  A
C2512      H2517   1.085       .  S
C2513      C2514   1.414       .  A
C2514      C2515   1.522       .  S
C2515      F2519   1.382       .  S
C2515      F3028   1.384       .  S
C2515      F2521   1.375   1_554  S
C2518      F2522   1.371       .  S
C2518      F2523   1.382       .  S
C2518      F2524   1.384       .  S
F2520      C2769   1.383       .  S
C2525      C2526   1.405       .  A
C2525      C2530   1.408       .  A
C2525      H2532   1.073       .  S
C2526      C2527   1.425       .  A
C2527      C2528   1.403       .  A
C2527      C2534   1.510       .  S
C2528      C2529   1.396       .  A
C2528      H2533   1.083       .  S
C2529      C2530   1.418       .  A
C2530      C2531   1.522       .  S
C2531      F2535   1.383       .  S
C2531      F2536   1.382       .  S
C2531      F2537   1.382       .  S
C2534      F2538   1.367       .  S
C2534      F2539   1.376       .  S
C2534      F2540   1.385       .  S
C2541      H2542   1.111       .  S
C2541      C2547   1.558       .  S
C2541      C2546   1.550       .  S
C2541      C2545   1.554       .  S
C2543      H2544   1.107       .  S
C2543      C2549   1.554       .  S
C2543      C2548   1.540       .  S
C2543      C2550   1.540       .  S
C2545      C2548   1.376       .  D
C2545      C2751   1.516       .  S
C2546      C2549   1.380       .  D
C2546      C2716   1.506       .  S
C2547      C2550   1.383       .  D
C2547      C2780   1.502       .  S
C2548      C2735   1.490       .  S
C2549      C2703   1.506       .  S
C2550      C2764   1.514       .  S
C2551      H2552   1.109       .  S
C2551      C2557   1.533       .  S
C2551      C2556   1.548       .  S
C2551      C2555   1.548       .  S
C2553      H2554   1.109       .  S
C2553      C2559   1.539       .  S
C2553      C2558   1.548       .  S
C2553      C2560   1.552       .  S
C2555      C2558   1.376       .  D
C2555      C2620   1.491       .  S
C2556      C2559   1.380       .  D
C2556      C2687   1.495       .  S
C2557      C2560   1.379       .  D
C2557      C2636   1.511       .  S
C2558      C2604   1.503       .  S
C2559      C2671   1.505       .  S
C2560      C2652   1.491       .  S
O2561     Cu2569   2.014       .  S
O2561      C2571   1.281       .  A
O2562      C2572   1.279       .  A
O2563     Cu2823   2.007       .  S
O2563      C2573   1.274       .  A
O2564      C2574   1.277       .  A
O2565      C2574   1.279       .  A
O2566     Cu2824   2.015   1_655  S
O2566      C2573   1.282       .  A
O2567      C2572   1.272       .  A
O2568     Cu2570   1.997   1_655  S
O2568      C2571   1.273       .  A
Cu2569    Cu2570   2.364   1_655  S
C2571      C2655   1.498       .  S
C2572      C2719   1.467       .  S
C2573      C2639   1.489       .  S
C2574      C2700   1.488       .  S
O2575     Cu2837   2.005       .  S
O2575      C2585   1.278       .  A
O2576     Cu2583   1.996       .  S
O2576      C2586   1.277       .  A
O2577     Cu2583   1.991       .  S
O2577      C2587   1.274       .  A
O2578     Cu2837   1.991       .  S
O2578      C2588   1.277       .  A
O2579     Cu2838   2.029       .  S
O2579      C2588   1.279       .  A
O2580     Cu2584   2.000       .  S
O2580      C2587   1.278       .  A
O2581     Cu2584   2.011       .  S
O2581      C2586   1.277       .  A
O2582     Cu2838   2.019       .  S
O2582      C2585   1.278       .  A
Cu2583    Cu2584   2.368       .  S
C2585      C2748   1.488       .  S
C2586      C2668   1.474       .  S
C2587      C2732   1.478       .  S
C2588      C2684   1.496       .  S
O2589      C2599   1.274       .  A
O2590     Cu2851   1.979       .  S
O2590      C2600   1.271       .  A
O2591      C2601   1.280       .  A
O2592     Cu2597   2.009       .  S
O2592      C2602   1.279       .  A
O2593     Cu2598   1.999       .  S
O2593      C2602   1.275       .  A
O2594      C2601   1.273       .  A
O2595     Cu2852   2.009       .  S
O2595      C2600   1.280       .  A
O2596      C2599   1.279       .  A
Cu2597    Cu2598   2.373       .  S
C2599      C2767   1.472       .  S
C2600      C2623   1.473       .  S
C2601      C2783   1.480       .  S
C2602      C2607   1.478       .  S
C2603      C2604   1.406       .  A
C2603      C2608   1.403       .  A
C2603      H2610   1.083       .  S
C2604      C2605   1.430       .  A
C2605      C2606   1.404       .  A
C2605      C2612   1.517       .  S
C2606      C2607   1.398       .  A
C2606      H2611   1.085       .  S
C2607      C2608   1.418       .  A
C2608      C2609   1.522       .  S
C2609      F2613   1.385       .  S
C2609      F2615   1.382       .  S
C2612      F2616   1.370       .  S
C2612      F2617   1.383       .  S
C2612      F2618   1.384       .  S
F2614      C2863   1.381       .  S
C2619      C2620   1.406       .  A
C2619      C2624   1.400       .  A
C2619      H2626   1.083       .  S
C2620      C2621   1.429       .  A
C2621      C2622   1.403       .  A
C2621      C2628   1.520       .  S
C2622      C2623   1.399       .  A
C2622      H2627   1.085       .  S
C2623      C2624   1.417       .  A
C2624      C2625   1.523       .  S
C2625      F2629   1.385       .  S
C2625      F2884   1.382       .  S
C2625      F2631   1.383       .  S
C2628      F2632   1.385       .  S
C2628      F2633   1.373       .  S
C2628      F2634   1.383       .  S
C2635      C2636   1.406       .  A
C2635      C2640   1.414       .  A
C2635      H2642   1.077       .  S
C2636      C2637   1.426       .  A
C2637      C2638   1.400       .  A
C2637      C2644   1.509       .  S
C2638      C2639   1.396       .  A
C2638      H2643   1.083       .  S
C2639      C2640   1.421       .  A
C2640      C2641   1.518       .  S
C2641      F2645   1.385       .  S
C2641      F2646   1.384       .  S
C2641      F2647   1.382       .  S
C2644      F2648   1.370       .  S
C2644      F2649   1.376       .  S
C2644      F2650   1.385       .  S
C2651      C2652   1.398       .  A
C2651      C2656   1.410       .  A
C2651      H2658   1.083       .  S
C2652      C2653   1.418       .  A
C2653      C2654   1.404       .  A
C2653      C2660   1.513       .  S
C2654      C2655   1.405       .  A
C2654      H2659   1.082       .  S
C2655      C2656   1.429       .  A
C2656      C2657   1.520       .  S
C2657      F2661   1.384       .  S
C2657      F2662   1.383       .  S
C2660      F2664   1.385       .  S
C2660      F2665   1.379       .  S
C2660      F2666   1.379       .  S
F2663      C2911   1.384       .  S
C2667      C2668   1.395       .  A
C2667      C2672   1.398       .  A
C2667      H2674   1.085       .  S
C2668      C2669   1.414       .  A
C2669      C2670   1.408       .  A
C2669      C2676   1.517       .  S
C2670      C2671   1.410       .  A
C2670      H2675   1.078       .  S
C2671      C2672   1.425       .  A
C2672      C2673   1.512       .  S
C2673      F2677   1.367       .  S
C2673      F2678   1.383       .  S
C2673      F2679   1.385       .  S
C2676      F2680   1.384       .  S
C2676      F2681   1.382       .  S
C2676      F2682   1.385       .  S
C2683      C2684   1.408       .  A
C2683      C2688   1.402       .  A
C2683      H2690   1.084       .  S
C2684      C2685   1.423       .  A
C2685      C2686   1.410       .  A
C2685      C2692   1.520       .  S
C2686      C2687   1.405       .  A
C2686      H2691   1.082       .  S
C2687      C2688   1.418       .  A
C2688      C2689   1.514       .  S
C2689      F2693   1.373       .  S
C2689      F2694   1.383       .  S
C2689      F2695   1.384       .  S
C2692      F2696   1.384       .  S
C2692      F2697   1.383       .  S
C2692      F2698   1.385       .  S
C2699      C2700   1.401       .  A
C2699      C2704   1.400       .  A
C2699      H2706   1.085       .  S
C2700      C2701   1.416       .  A
C2701      C2702   1.412       .  A
C2701      C2708   1.518       .  S
C2702      C2703   1.408       .  A
C2702      H2707   1.071       .  S
C2703      C2704   1.424       .  A
C2704      C2705   1.514       .  S
C2705      F2709   1.384       .  S
C2705      F2710   1.378       .  S
C2705      F2711   1.373       .  S
C2708      F2712   1.383       .  S
C2708      F2713   1.383       .  S
C2708      F2714   1.385       .  S
C2715      C2716   1.410       .  A
C2715      C2720   1.403       .  A
C2715      H2722   1.077       .  S
C2716      C2717   1.428       .  A
C2717      C2718   1.395       .  A
C2717      C2724   1.505       .  S
C2718      C2719   1.392       .  A
C2718      H2723   1.086       .  S
C2719      C2720   1.414       .  A
C2720      C2721   1.521       .  S
C2721      F2725   1.385       .  S
C2721      F2726   1.382       .  S
C2721      F2727   1.384       .  S
C2724      F2728   1.383       .  S
C2724      F2729   1.355       .  S
C2724      F2730   1.385       .  S
C2731      C2732   1.403       .  A
C2731      C2736   1.404       .  A
C2731      H2738   1.085       .  S
C2732      C2733   1.418       .  A
C2733      C2734   1.399       .  A
C2733      C2740   1.522       .  S
C2734      C2735   1.405       .  A
C2734      H2739   1.082       .  S
C2735      C2736   1.423       .  A
C2736      C2737   1.517       .  S
C2737      F2741   1.383       .  S
C2737      F2742   1.370       .  S
C2737      F2743   1.384       .  S
C2740      F2744   1.383       .  S
C2740      F2746   1.385       .  S
F2745      C2994   1.384       .  S
C2747      C2748   1.398       .  A
C2747      C2752   1.403       .  A
C2747      H2754   1.085       .  S
C2748      C2749   1.419       .  A
C2749      C2750   1.412       .  A
C2749      C2756   1.519       .  S
C2750      C2751   1.407       .  A
C2750      H2755   1.074       .  S
C2751      C2752   1.428       .  A
C2752      C2753   1.511       .  S
C2753      F2757   1.384       .  S
C2753      F2758   1.383       .  S
C2753      F2759   1.366       .  S
C2756      F3014   1.383       .  S
C2756      F3015   1.383       .  S
C2756      F2762   1.383       .  S
C2763      C2764   1.407       .  A
C2763      C2768   1.398       .  A
C2763      H2770   1.073       .  S
C2764      C2765   1.426       .  A
C2765      C2766   1.406       .  A
C2765      C2772   1.508       .  S
C2766      C2767   1.398       .  A
C2766      H2771   1.085       .  S
C2767      C2768   1.415       .  A
C2768      C2769   1.522       .  S
C2769      F2773   1.383       .  S
C2769      F2775   1.374       .  S
C2772      F2776   1.371       .  S
C2772      F2777   1.382       .  S
C2772      F2778   1.384       .  S
F2774      C3023   1.383       .  S
C2779      C2780   1.404       .  A
C2779      C2784   1.407       .  A
C2779      H2786   1.076       .  S
C2780      C2781   1.424       .  A
C2781      C2782   1.402       .  A
C2781      C2788   1.509       .  S
C2782      C2783   1.397       .  A
C2782      H2787   1.083       .  S
C2783      C2784   1.418       .  A
C2784      C2785   1.521       .  S
C2785      F2789   1.383       .  S
C2785      F2790   1.382       .  S
C2785      F2791   1.382       .  S
C2788      F2792   1.368       .  S
C2788      F2793   1.374       .  S
C2788      F2794   1.385       .  S
C2795      H2796   1.111       .  S
C2795      C2801   1.559       .  S
C2795      C2800   1.553       .  S
C2795      C2799   1.554       .  S
C2797      H2798   1.107       .  S
C2797      C2803   1.556       .  S
C2797      C2802   1.542       .  S
C2797      C2804   1.542       .  S
C2799      C2802   1.376       .  D
C2799      C3005   1.520       .  S
C2800      C2803   1.382       .  D
C2800      C2970   1.510       .  S
C2801      C2804   1.384       .  D
C2801      C3034   1.503       .  S
C2802      C2989   1.489       .  S
C2803      C2957   1.509       .  S
C2804      C3018   1.518       .  S
C2805      H2806   1.111       .  S
C2805      C2811   1.535       .  S
C2805      C2810   1.554       .  S
C2805      C2809   1.545       .  S
C2807      H2808   1.109       .  S
C2807      C2813   1.538       .  S
C2807      C2812   1.549       .  S
C2807      C2814   1.549       .  S
C2809      C2812   1.376       .  D
C2809      C2874   1.491       .  S
C2810      C2813   1.384       .  D
C2810      C2941   1.498       .  S
C2811      C2814   1.374       .  D
C2811      C2890   1.509       .  S
C2812      C2858   1.504       .  S
C2813      C2925   1.507       .  S
C2814      C2906   1.485       .  S
O2815     Cu2823   2.011       .  S
O2815      C2825   1.280       .  A
O2816      C2826   1.279       .  A
O2817      C2827   1.272       .  A
O2818      C2828   1.278       .  A
O2819      C2828   1.278       .  A
O2820      C2827   1.283       .  A
O2821      C2826   1.272       .  A
O2822     Cu2824   1.993   1_655  S
O2822      C2825   1.273       .  A
Cu2823    Cu2824   2.365   1_655  S
C2825      C2909   1.495       .  S
C2826      C2973   1.471       .  S
C2827      C2893   1.492       .  S
C2828      C2954   1.493       .  S
O2829      C2839   1.279       .  A
O2830     Cu2837   1.992       .  S
O2830      C2840   1.276       .  A
O2831     Cu2837   1.980       .  S
O2831      C2841   1.272       .  A
O2832      C2842   1.278       .  A
O2833      C2842   1.278       .  A
O2834     Cu2838   2.008       .  S
O2834      C2841   1.279       .  A
O2835     Cu2838   2.011       .  S
O2835      C2840   1.276       .  A
O2836      C2839   1.279       .  A
Cu2837    Cu2838   2.368       .  S
C2839      C3002   1.492       .  S
C2840      C2922   1.471       .  S
C2841      C2986   1.478       .  S
C2842      C2938   1.493       .  S
O2843      C2853   1.273       .  A
O2844      C2854   1.272       .  A
O2845      C2855   1.280       .  A
O2846     Cu2851   2.012       .  S
O2846      C2856   1.280       .  A
O2847     Cu2852   2.002       .  S
O2847      C2856   1.275       .  A
O2848      C2855   1.274       .  A
O2849      C2854   1.280       .  A
O2850      C2853   1.280       .  A
Cu2851    Cu2852   2.372       .  S
C2853      C3021   1.474       .  S
C2854      C2877   1.474       .  S
C2855      C3037   1.483       .  S
C2856      C2861   1.480       .  S
C2857      C2858   1.406       .  A
C2857      C2862   1.405       .  A
C2857      H2864   1.083       .  S
C2858      C2859   1.429       .  A
C2859      C2860   1.404       .  A
C2859      C2866   1.517       .  S
C2860      C2861   1.398       .  A
C2860      H2865   1.085       .  S
C2861      C2862   1.419       .  A
C2862      C2863   1.521       .  S
C2863      F2867   1.385       .  S
C2863      F2869   1.382       .  S
C2866      F2870   1.372       .  S
C2866      F2871   1.383       .  S
C2866      F2872   1.384       .  S
C2873      C2874   1.405       .  A
C2873      C2878   1.400       .  A
C2873      H2880   1.083       .  S
C2874      C2875   1.427       .  A
C2875      C2876   1.402       .  A
C2875      C2882   1.519       .  S
C2876      C2877   1.400       .  A
C2876      H2881   1.085       .  S
C2877      C2878   1.417       .  A
C2878      C2879   1.523       .  S
C2879      F2883   1.385       .  S
C2879      F2885   1.382       .  S
C2882      F2886   1.384       .  S
C2882      F2887   1.372       .  S
C2882      F2888   1.383       .  S
C2889      C2890   1.404       .  A
C2889      C2894   1.412       .  A
C2889      H2896   1.074       .  S
C2890      C2891   1.423       .  A
C2891      C2892   1.401       .  A
C2891      C2898   1.507       .  S
C2892      C2893   1.398       .  A
C2892      H2897   1.082       .  S
C2893      C2894   1.424       .  A
C2894      C2895   1.520       .  S
C2895      F2899   1.385       .  S
C2895      F2900   1.384       .  S
C2895      F2901   1.383       .  S
C2898      F2902   1.374       .  S
C2898      F2903   1.373       .  S
C2898      F2904   1.385       .  S
C2905      C2906   1.397       .  A
C2905      C2910   1.408       .  A
C2905      H2912   1.081       .  S
C2906      C2907   1.417       .  A
C2907      C2908   1.402       .  A
C2907      C2914   1.514       .  S
C2908      C2909   1.405       .  A
C2908      H2913   1.083       .  S
C2909      C2910   1.429       .  A
C2910      C2911   1.520       .  S
C2911      F2915   1.384       .  S
C2911      F2916   1.383       .  S
C2914      F2918   1.385       .  S
C2914      F2919   1.374       .  S
C2914      F2920   1.381       .  S
C2921      C2922   1.394       .  A
C2921      C2926   1.397       .  A
C2921      H2928   1.086       .  S
C2922      C2923   1.413       .  A
C2923      C2924   1.408       .  A
C2923      C2930   1.517       .  S
C2924      C2925   1.411       .  A
C2924      H2929   1.078       .  S
C2925      C2926   1.426       .  A
C2926      C2927   1.513       .  S
C2927      F2931   1.367       .  S
C2927      F2932   1.383       .  S
C2927      F2933   1.385       .  S
C2930      F2934   1.383       .  S
C2930      F2935   1.382       .  S
C2930      F2936   1.385       .  S
C2937      C2938   1.406       .  A
C2937      C2942   1.405       .  A
C2937      H2944   1.085       .  S
C2938      C2939   1.422       .  A
C2939      C2940   1.408       .  A
C2939      C2946   1.521       .  S
C2940      C2941   1.405       .  A
C2940      H2945   1.081       .  S
C2941      C2942   1.422       .  A
C2942      C2943   1.515       .  S
C2943      F2947   1.372       .  S
C2943      F2948   1.383       .  S
C2943      F2949   1.384       .  S
C2946      F2950   1.384       .  S
C2946      F2951   1.382       .  S
C2946      F2952   1.385       .  S
C2953      C2954   1.402       .  A
C2953      C2958   1.403       .  A
C2953      H2960   1.085       .  S
C2954      C2955   1.418       .  A
C2955      C2956   1.412       .  A
C2955      C2962   1.517       .  S
C2956      C2957   1.406       .  A
C2956      H2961   1.072       .  S
C2957      C2958   1.427       .  A
C2958      C2959   1.515       .  S
C2959      F2963   1.384       .  S
C2959      F2964   1.378       .  S
C2959      F2965   1.373       .  S
C2962      F2966   1.383       .  S
C2962      F2967   1.383       .  S
C2962      F2968   1.384       .  S
C2969      C2970   1.410       .  A
C2969      C2974   1.402       .  A
C2969      H2976   1.076       .  S
C2970      C2971   1.430       .  A
C2971      C2972   1.399       .  A
C2971      C2978   1.506       .  S
C2972      C2973   1.393       .  A
C2972      H2977   1.086       .  S
C2973      C2974   1.414       .  A
C2974      C2975   1.521       .  S
C2975      F2979   1.385       .  S
C2975      F2980   1.382       .  S
C2975      F2981   1.384       .  S
C2978      F2982   1.383       .  S
C2978      F2983   1.354       .  S
C2978      F2984   1.385       .  S
C2985      C2986   1.402       .  A
C2985      C2990   1.403       .  A
C2985      H2992   1.085       .  S
C2986      C2987   1.419       .  A
C2987      C2988   1.399       .  A
C2987      C2994   1.523       .  S
C2988      C2989   1.404       .  A
C2988      H2993   1.082       .  S
C2989      C2990   1.424       .  A
C2990      C2991   1.517       .  S
C2991      F2995   1.383       .  S
C2991      F2996   1.369       .  S
C2991      F2997   1.384       .  S
C2994      F2998   1.383       .  S
C2994      F3000   1.385       .  S
C3001      C3002   1.399       .  A
C3001      C3006   1.405       .  A
C3001      H3008   1.085       .  S
C3002      C3003   1.419       .  A
C3003      C3004   1.414       .  A
C3003      C3010   1.519       .  S
C3004      C3005   1.407       .  A
C3004      H3009   1.073       .  S
C3005      C3006   1.429       .  A
C3006      C3007   1.511       .  S
C3007      F3011   1.384       .  S
C3007      F3012   1.383       .  S
C3007      F3013   1.368       .  S
C3010      F3016   1.383       .  S
C3017      C3018   1.408       .  A
C3017      C3022   1.399       .  A
C3017      H3024   1.073       .  S
C3018      C3019   1.428       .  A
C3019      C3020   1.407       .  A
C3019      C3026   1.507       .  S
C3020      C3021   1.397       .  A
C3020      H3025   1.085       .  S
C3021      C3022   1.415       .  A
C3022      C3023   1.521       .  S
C3023      F3027   1.383       .  S
C3023      F3029   1.375       .  S
C3026      F3030   1.370       .  S
C3026      F3031   1.382       .  S
C3026      F3032   1.384       .  S
C3033      C3034   1.405       .  A
C3033      C3038   1.409       .  A
C3033      H3040   1.075       .  S
C3034      C3035   1.423       .  A
C3035      C3036   1.402       .  A
C3035      C3042   1.508       .  S
C3036      C3037   1.398       .  A
C3036      H3041   1.083       .  S
C3037      C3038   1.419       .  A
C3038      C3039   1.521       .  S
C3039      F3043   1.383       .  S
C3039      F3044   1.382       .  S
C3039      F3045   1.382       .  S
C3042      F3046   1.368       .  S
C3042      F3047   1.376       .  S
C3042      F3048   1.385       .  S
