geometry optimzed in LAMMPS
_audit_creation_date              2020-11-30 
_audit_creation_method            'lammps2cif' 
_symmetry_space_group_name_H-M    'P1' 
_symmetry_Int_Tables_number       1 
_symmetry_cell_setting            triclinic 
loop_ 
_symmetry_equiv_pos_as_xyz 
  x,y,z 
_cell_length_a                    33.230241972667635 
_cell_length_b                    30.17363264027908 
_cell_length_c                    53.621890357058675 
_cell_angle_alpha                 89.07460101994702 
_cell_angle_beta                  90.32864407228678 
_cell_angle_gamma                 90.55016116118243 
loop_ 
_atom_site_label 
_atom_site_type_symbol 
_atom_site_fract_x 
_atom_site_fract_y 
_atom_site_fract_z 
_atom_site_charge 
C1          C  0.01595905  0.99829955  0.49900551     0.00680
C2          C  0.47543179  0.49883930  0.49721661     0.00680
C3          C  0.48378199  0.25429500  0.50445227     0.00680
C4          C  0.02425974  0.25471793  0.50257696     0.00680
C5          C  0.34769882  0.45086504  0.43536678     0.42570
N6          N  0.29171875  0.44506711  0.41552605     0.01460
C7          C  0.17100206  0.25965243  0.41336403    -0.06420
H8          H  0.34099760  0.23576598  0.40556293     0.06950
C9          C  0.31423556  0.31458126  0.31992154    -0.06770
Co10       Co  0.24918763  0.36195985  0.43132522     0.74180
N11         N  0.29588348  0.28597539  0.41213009    -0.25950
Co12       Co  0.25072295  0.28607942  0.38409247     0.74070
C13         C  0.32950575  0.26999969  0.32526734     0.42670
N14         N  0.28906437  0.42506035  0.34265702     0.01080
N15         N  0.29337256  0.29156818  0.35595274     0.01180
N16         N  0.17369558  0.31088773  0.44351918    -0.46790
H17         H  0.33272868  0.39152243  0.46060761     0.06940
N18         N  0.29278564  0.31521991  0.42988361     0.01470
N19         N  0.20698698  0.28784279  0.35617354     0.01210
C20         C  0.16586587  0.26491268  0.32804828     0.42810
N21         N  0.28730036  0.45422293  0.36068878    -0.25400
C22         C  0.17782596  0.40894348  0.45029065    -0.06320
N23         N  0.32517963  0.46958791  0.41692361    -0.46510
N24         N  0.18490045  0.25335216  0.34939775    -0.46730
C25         C  0.15283195  0.44617578  0.44362112     0.42580
N26         N  0.20608964  0.31269356  0.42949226     0.01450
N27         N  0.20145858  0.45080750  0.36090097    -0.25420
N28         N  0.29184217  0.41172931  0.43169709    -0.25920
N29         N  0.20209301  0.42215462  0.34250174     0.01090
H30         H  0.17607490  0.51581862  0.36406391     0.06980
H31         H  0.17518324  0.32832262  0.30433132     0.07020
N32         N  0.20556960  0.28343610  0.41150871    -0.25970
N33         N  0.29151148  0.32467807  0.33953884    -0.25580
N34         N  0.20156051  0.44172659  0.41734672     0.01460
C35         C  0.34664567  0.28067319  0.44021800     0.42860
C36         C  0.31091635  0.48891711  0.35486707    -0.06830
N37         N  0.20509361  0.32116100  0.33991912    -0.25580
H38         H  0.31473240  0.33298998  0.30244592     0.07000
N39         N  0.32151389  0.31272772  0.44662085    -0.46800
H40         H  0.31241870  0.51964922  0.36495470     0.06990
C41         C  0.16417066  0.47525360  0.32889465     0.42690
C42         C  0.32489932  0.41400970  0.44566821    -0.06330
Co43       Co  0.24514230  0.44904989  0.38889395     0.73820
N44         N  0.31225104  0.43897210  0.32407785    -0.46520
C45         C  0.14985470  0.27878160  0.43455961     0.42960
N46         N  0.16922577  0.46554803  0.42277374    -0.46510
Co47       Co  0.24691575  0.37337100  0.34093577     0.73890
C48         C  0.17952911  0.30985752  0.32157874    -0.06830
C49         C  0.32968936  0.26216870  0.41689759    -0.06400
N50         N  0.20595487  0.40837981  0.43309912    -0.25920
N51         N  0.31510899  0.25816434  0.34792379    -0.46690
H52         H  0.16066646  0.23478257  0.40046041     0.06960
C53         C  0.17779317  0.48488948  0.35422652    -0.06810
Cl54       Cl  0.24793119  0.36763877  0.38613525    -0.49810
C55         C  0.32776815  0.47868700  0.33066092     0.42720
H56         H  0.17588869  0.38455172  0.46505553     0.06930
N57         N  0.18092889  0.43612639  0.32294983    -0.46520
C58         C  0.33730081  0.04588676  0.55358390     0.42570
N59         N  0.29078451  0.05503475  0.58106361     0.01460
C60         C  0.17586055  0.24319368  0.59030545    -0.06420
H61         H  0.34567841  0.25972227  0.60300627     0.06950
C62         C  0.32191671  0.18063711  0.68062508    -0.06770
Co63       Co  0.24982820  0.14077197  0.56953607     0.74180
N64         N  0.29878454  0.21423454  0.59103222    -0.25950
Co65       Co  0.25469336  0.21239830  0.61857341     0.74070
C66         C  0.33828988  0.22503587  0.67502435     0.42670
N67         N  0.29350965  0.07127205  0.65604181     0.01080
N68         N  0.29867892  0.20476816  0.64547126     0.01180
N69         N  0.17628532  0.19459067  0.55872500    -0.46790
H70         H  0.32007881  0.11192092  0.53405802     0.06940
N71         N  0.29633150  0.18669113  0.57231743     0.01470
N72         N  0.21229089  0.20900148  0.64678997     0.01210
C73         C  0.17317117  0.23062300  0.67576937     0.42810
N74         N  0.29080506  0.04300629  0.63748094    -0.25400
C75         C  0.17478680  0.09490691  0.55093799    -0.06320
N76         N  0.31967038  0.02727034  0.57424570    -0.46510
N77         N  0.19107901  0.24310962  0.65430480    -0.46730
C78         C  0.15067103  0.05591014  0.55678319     0.42580
N79         N  0.20847896  0.19043105  0.57295435     0.01450
N80         N  0.20512178  0.04600464  0.63879887    -0.25420
N81         N  0.28971912  0.09039200  0.56642165    -0.25920
N82         N  0.20672838  0.07427521  0.65740860     0.01090
H83         H  0.17843671  0.98091380  0.63551313     0.06980
H84         H  0.18282423  0.16619856  0.69855994     0.07020
N85         N  0.20917132  0.21802394  0.59170307    -0.25970
N86         N  0.29734992  0.17120049  0.66150638    -0.25580
N87         N  0.20124872  0.05950939  0.58224510     0.01460
C88         C  0.35397763  0.21851334  0.56760680     0.42860
C89         C  0.31350468  0.00767530  0.64310252    -0.06830
N90         N  0.21095407  0.17494108  0.66258382    -0.25580
H91         H  0.32328926  0.16200562  0.69800998     0.07000
N92         N  0.32841084  0.18832659  0.55797307    -0.46800
H93         H  0.31372233  0.97714138  0.63281505     0.06990
C94         C  0.16896621  0.02079305  0.67114022     0.42690
C95         C  0.31676960  0.08732698  0.54863702    -0.06330
Co96       Co  0.24687278  0.04970797  0.60968167     0.73820
N97         N  0.31665447  0.05636068  0.67444805    -0.46520
C98         C  0.15412518  0.22683530  0.56840919     0.42960
N99         N  0.16878454  0.03514309  0.57662146    -0.46510
Co100      Co  0.25208165  0.12272225  0.65956937     0.73890
C101        C  0.18668483  0.18547730  0.68154727    -0.06830
C102        C  0.33416477  0.23645941  0.58953449    -0.06400
N103        N  0.20450119  0.09461371  0.56745637    -0.25920
N104        N  0.32234544  0.23740157  0.65291819    -0.46690
H105        H  0.16687733  0.26756463  0.60369323     0.06960
C106        C  0.18139650  0.01154100  0.64559615    -0.06810
Cl107      Cl  0.25077635  0.13120914  0.61447855    -0.49810
C108        C  0.33109530  0.01674680  0.66757122     0.42720
H109        H  0.17124676  0.12035981  0.53682773     0.06930
N110        N  0.18601300  0.06007821  0.67699549    -0.46520
C111        C  0.25440915  0.49697975  0.00169439     0.00680
C112        C  0.21363768  0.50031355  0.00229136     0.00680
C113        C  0.25441319  0.25094230  0.99722826     0.00680
C114        C  0.21351339  0.25166029  0.99720133     0.00680
C115        C  0.38851740  0.03986375  0.94041769     0.42570
N116        N  0.44063873  0.04663782  0.91691166     0.01460
C117        C  0.06308942  0.23276125  0.90899830    -0.06420
H118        H  0.39430352  0.25215903  0.90055176     0.06950
C119        C  0.40923883  0.18027948  0.82163128    -0.06770
Co120      Co  0.48765599  0.12813308  0.93025310     0.74180
N121        N  0.44032669  0.20504632  0.91083554    -0.25950
Co122      Co  0.48239933  0.20506561  0.88215734     0.74070
C123        C  0.39447764  0.22427065  0.82812333     0.42670
N124        N  0.43581484  0.06920993  0.84308147     0.01080
N125        N  0.43650364  0.20138797  0.85602118     0.01180
N126        N  0.06553499  0.17991344  0.93932625    -0.46790
H127        H  0.40826521  0.09912961  0.96400066     0.06940
N128        N  0.44356524  0.17624956  0.92938207     0.01470
N129        N  0.02299521  0.20327041  0.85300639     0.01210
C130        C  0.06146766  0.22678761  0.82359252     0.42810
N131        N  0.43821741  0.03951912  0.86136759    -0.25400
C132        C  0.06199517  0.07652974  0.94576331    -0.06320
N133        N  0.40741389  0.02227945  0.92053481    -0.46510
N134        N  0.04538486  0.23741725  0.84563593    -0.46730
C135        C  0.08319358  0.03770207  0.93767758     0.42580
N136        N  0.03193625  0.17684239  0.92609731     0.01450
N137        N  0.02415321  0.03995165  0.85852450    -0.25420
N138        N  0.44382963  0.07919938  0.93293763    -0.25920
N139        N  0.02261506  0.06938452  0.83998199     0.01090
H140        H  0.04974115  0.97479061  0.86171549     0.06980
H141        H  0.04736703  0.16557146  0.79987911     0.07020
N142        N  0.02982583  0.20690540  0.90803440    -0.25970
N143        N  0.43549943  0.16923125  0.83964539    -0.25580
N144        N  0.03055086  0.04659132  0.91477725     0.01460
C145        C  0.38747011  0.20879091  0.93629240     0.42860
C146        C  0.41374964  0.00539587  0.85611262    -0.06830
N147        N  0.02191957  0.17101005  0.83662317    -0.25580
H148        H  0.40547603  0.16288977  0.80427498     0.07000
N149        N  0.41299442  0.17762558  0.94487191    -0.46800
H150        H  0.41287667  0.97412933  0.86625894     0.06990
C151        C  0.05924886  0.01655123  0.82594256     0.42690
C152        C  0.41328978  0.07667602  0.94887022    -0.06330
Co153      Co  0.48355366  0.04219504  0.88817774     0.73820
N154        N  0.41136800  0.05623930  0.82498538    -0.46520
C155        C  0.08691377  0.21406881  0.92956258     0.42960
N156        N  0.06212661  0.02022810  0.91833407    -0.46510
Co157      Co  0.47904918  0.11962453  0.83958447     0.73890
C158        C  0.04542521  0.18296311  0.81730409    -0.06830
C159        C  0.40580646  0.22761725  0.91356609    -0.06400
N160        N  0.03055159  0.07976088  0.93048316    -0.25920
N161        N  0.41302024  0.23487534  0.84964621    -0.46690
H162        H  0.07060347  0.25948397  0.89612376     0.06960
C163        C  0.04707842  0.00588475  0.85155893    -0.06810
Cl164      Cl  0.48335620  0.12364902  0.88491280    -0.49810
C165        C  0.39566701  0.01650371  0.83196108     0.42720
H166        H  0.06926079  0.09900277  0.96067411     0.06930
N167        N  0.04240051  0.05608346  0.82009204    -0.46520
C168        C  0.11441202  0.35279409  0.74887593     0.00680
C169        C  0.11269461  0.39819446  0.74821231     0.00680
C170        C  0.36309176  0.35368765  0.75103601     0.00680
C171        C  0.36304168  0.39882777  0.75070215     0.00680
C172        C  0.11989052  0.09972815  0.25013411     0.00680
C173        C  0.12012714  0.14515607  0.24986018     0.00680
C174        C  0.36144640  0.09799037  0.24889753     0.00680
C175        C  0.36246266  0.14316138  0.24843581     0.00680
C176        C  0.39006172  0.45958159  0.06123867     0.42570
N177        N  0.44213488  0.45268074  0.08478929     0.01460
C178        C  0.06458197  0.26831854  0.08497486    -0.06420
H179        H  0.39616220  0.24570900  0.09508173     0.06950
C180        C  0.41468011  0.31316006  0.17693983    -0.06770
Co181      Co  0.48943661  0.37426141  0.06900214     0.74180
N182        N  0.44210500  0.29487323  0.08650541    -0.25950
Co183      Co  0.48563604  0.29294105  0.11510347     0.74070
C184        C  0.40057655  0.26874489  0.17045252     0.42670
N185        N  0.44013961  0.42538999  0.15834917     0.01080
N186        N  0.44094513  0.29353881  0.14214921     0.01180
N187        N  0.06424802  0.32373660  0.05619313    -0.46790
H188        H  0.41096934  0.40422212  0.03565145     0.06940
N189        N  0.44507095  0.32532168  0.06872067     0.01470
N190        N  0.02735676  0.29333600  0.14422579     0.01210
C191        C  0.06593026  0.26857513  0.17348866     0.42810
N192        N  0.44111968  0.45562008  0.14030658    -0.25400
C193        C  0.06557237  0.42932603  0.05663593    -0.06320
N194        N  0.40841295  0.47576839  0.08189358    -0.46510
N195        N  0.04943383  0.25893016  0.15117562    -0.46730
C196        C  0.08553220  0.46805755  0.06679645     0.42580
N197        N  0.03289149  0.32589485  0.07109375     0.01450
N198        N  0.02714888  0.45707397  0.14239200    -0.25420
N199        N  0.44591376  0.42223141  0.06766351    -0.25920
N200        N  0.02704218  0.42626346  0.16018275     0.01090
H201        H  0.05335591  0.52250856  0.13977536     0.06980
H202        H  0.05273858  0.32839851  0.19808754     0.07020
N203        N  0.03205701  0.29414741  0.08827464    -0.25970
N204        N  0.44022382  0.32519262  0.15885981    -0.25580
N205        N  0.03152887  0.45540324  0.08716877     0.01460
C206        C  0.38886423  0.29217673  0.06055186     0.42860
C207        C  0.41710852  0.48909819  0.14625110    -0.06830
N208        N  0.02674457  0.32464274  0.16122371    -0.25580
H209        H  0.41142142  0.33019334  0.19439971     0.07000
N210        N  0.41439077  0.32455806  0.05304150    -0.46800
H211        H  0.41586550  0.52069010  0.13646580     0.06990
C212        C  0.06502312  0.47850803  0.17432079     0.42690
C213        C  0.41558247  0.42527427  0.05154093    -0.06330
Co214      Co  0.48537503  0.45599220  0.11338827     0.73820
N215        N  0.41730984  0.43767849  0.17717359    -0.46520
C216        C  0.08607187  0.28864474  0.06369021     0.42960
N217        N  0.06296606  0.48287012  0.08572351    -0.46510
Co218      Co  0.48363153  0.37537836  0.15989503     0.73890
C219        C  0.05055929  0.31200138  0.18033591    -0.06830
C220        C  0.40744960  0.27187282  0.08294602    -0.06400
N221        N  0.03278899  0.42369161  0.07055812    -0.25920
N222        N  0.41832951  0.25895230  0.14867363    -0.46690
H223        H  0.07280015  0.23998314  0.09644575     0.06960
C224        C  0.05095106  0.49080932  0.14938689    -0.06810
Cl225      Cl  0.48617184  0.37460951  0.11448123    -0.49810
C226        C  0.40105308  0.47721269  0.17068774     0.42720
H227        H  0.07443170  0.40870940  0.04138977     0.06930
N228        N  0.04856218  0.43835481  0.17983804    -0.46520
C229        C  0.37016035  0.07125023  0.22645681    -0.05350
C230        C  0.40889134  0.07161079  0.21619269    -0.32780
C231        C  0.41900795  0.04147503  0.19768477     0.36470
C232        C  0.39029347  0.51023571  0.18936662    -0.05710
C233        C  0.35144534  0.51038012  0.19921957    -0.32680
C234        C  0.34128197  0.04055559  0.21768261     0.36370
H235        H  0.43173367  0.09408009  0.22324722     0.16740
O236        O  0.45764184  0.04113601  0.18880177    -0.60180
H237        H  0.32909471  0.48672898  0.19280148     0.16760
O238        O  0.30298752  0.03990494  0.22710442    -0.60280
H239        H  0.30235215  0.51476868  0.23925165     0.43750
H240        H  0.45849948  0.06452794  0.17560720     0.43710
C241        C  0.37492724  0.16910277  0.22603259    -0.05350
C242        C  0.40874278  0.19674461  0.22834827    -0.32780
C243        C  0.41732728  0.22909580  0.21030965     0.36470
C244        C  0.39210425  0.23386518  0.18923560    -0.05710
C245        C  0.35962142  0.20441596  0.18603213    -0.32680
C246        C  0.35054416  0.17243397  0.20451831     0.36370
H247        H  0.42776127  0.19436485  0.24479125     0.16740
O248        O  0.45085323  0.25546630  0.21326865    -0.60180
H249        H  0.34050761  0.20729052  0.16966091     0.16760
O250        O  0.31716464  0.14582067  0.20185498    -0.60280
H251        H  0.29458629  0.16297261  0.20871607     0.43750
H252        H  0.44388059  0.27659116  0.22651836     0.43710
C253        C  0.07849465  0.51052837  0.19331945    -0.05350
C254        C  0.10754914  0.54307464  0.18728260    -0.32780
C255        C  0.12064192  0.07371949  0.20512947     0.36470
C256        C  0.10349966  0.07300368  0.22912859    -0.05710
C257        C  0.07326971  0.04161450  0.23466750    -0.32680
C258        C  0.06102454  0.01039251  0.21718653     0.36370
H259        H  0.12094266  0.54391884  0.16890511     0.16740
O260        O  0.15095219  0.10312592  0.19920072    -0.60180
H261        H  0.05968987  0.04062011  0.25299950     0.16760
O262        O  0.03095563  0.98084191  0.22340846    -0.60280
H263        H  0.54447916  0.95674382  0.23294282     0.43750
H264        H  0.17626513  0.58658462  0.20195732     0.43710
C265        C  0.10752156  0.17234634  0.22759736    -0.05350
C266        C  0.06798561  0.16983888  0.21828342    -0.32780
C267        C  0.05452426  0.20021189  0.20001652     0.36470
C268        C  0.08040066  0.23426176  0.19122693    -0.05710
C269        C  0.12002520  0.23622863  0.20006812    -0.32680
C270        C  0.13372261  0.20551550  0.21799779     0.36370
H271        H  0.04710500  0.14540044  0.22584791     0.16740
O272        O  0.01535507  0.19795363  0.19191409    -0.60180
H273        H  0.14031116  0.26195284  0.19324723     0.16760
O274        O  0.17290137  0.20808506  0.22611450    -0.60280
H275        H  0.17382494  0.23334665  0.23772114     0.43750
H276        H  0.01535184  0.17637082  0.17816572     0.43710
C277        C  0.07222850  0.98432381  0.80688252    -0.05350
C278        C  0.05554716  0.98688596  0.78279830    -0.32780
C279        C  0.06695914  0.45743273  0.76423855     0.36470
C280        C  0.09596019  0.42458568  0.76930091    -0.05710
C281        C  0.11225608  0.42142682  0.79354784    -0.32680
C282        C  0.10014074  0.45052208  0.81234012     0.36370
H283        H  0.03328627  0.01179809  0.77827114     0.16740
O284        O  0.04927181  0.46076581  0.74110815    -0.60180
H285        H  0.13536345  0.39731796  0.79773630     0.16760
O286        O  0.11743119  0.44721129  0.83556491    -0.60280
H287        H  0.10349798  0.42187129  0.84390627     0.43750
H288        H  0.06221814  0.98686866  0.73289437     0.43710
C289        C  0.07526465  0.26089021  0.80566228    -0.05350
C290        C  0.04727424  0.28974974  0.79448775    -0.32780
C291        C  0.05976758  0.32196241  0.77697877     0.36470
C292        C  0.10076965  0.32581698  0.77075264    -0.05710
C293        C  0.12874710  0.29777955  0.78262823    -0.32680
C294        C  0.11624154  0.26565770  0.80007669     0.36370
H295        H  0.01558521  0.28655948  0.79893232     0.16740
O296        O  0.03164316  0.34836153  0.76546419    -0.60180
H297        H  0.16031284  0.30001252  0.77774599     0.16760
O298        O  0.14411981  0.23831809  0.81109457    -0.60280
H299        H  0.15245909  0.25351394  0.82657943     0.43750
H300        H  0.02536770  0.33376968  0.74945544     0.43710
C301        C  0.38538272  0.98324888  0.81319486    -0.05350
C302        C  0.41498762  0.45334863  0.80583251    -0.32780
C303        C  0.40795788  0.42458778  0.78599487     0.36470
C304        C  0.37054457  0.42507410  0.77354356    -0.05710
C305        C  0.34074303  0.45455774  0.78127084    -0.32680
C306        C  0.34813606  0.98386003  0.80078443     0.36370
H307        H  0.44433137  0.45370185  0.81477128     0.16740
O308        O  0.43874514  0.39888071  0.77760635    -0.60180
H309        H  0.31201273  0.45568344  0.77163777     0.16760
O310        O  0.31896531  0.01315962  0.80747573    -0.60280
H311        H  0.32329031  0.03963446  0.79658316     0.43750
H312        H  0.44477782  0.37768571  0.79143132     0.43710
C313        C  0.38632273  0.25918246  0.80940218    -0.05350
C314        C  0.41186787  0.26288466  0.78879685    -0.32780
C315        C  0.40647209  0.29622293  0.77095917     0.36470
C316        C  0.37473739  0.32652493  0.77325305    -0.05710
C317        C  0.35023972  0.32434065  0.79452090    -0.32680
C318        C  0.35611272  0.29091034  0.81269153     0.36370
H319        H  0.43633626  0.23983371  0.78650029     0.16740
O320        O  0.43141861  0.29773537  0.75066936    -0.60180
H321        H  0.32543142  0.34706081  0.79637374     0.16760
O322        O  0.33167623  0.28880544  0.83320171    -0.60280
H323        H  0.30870599  0.26954744  0.82829695     0.43750
H324        H  0.45193559  0.32067825  0.75452624     0.43710
C325        C  0.19018047  0.25894402  0.02033747    -0.05350
C326        C  0.18349554  0.30218681  0.02791229    -0.32780
C327        C  0.15003800  0.31170637  0.04248887     0.36470
C328        C  0.12500142  0.27743848  0.05197870    -0.05710
C329        C  0.13499050  0.23338293  0.04709443    -0.32680
C330        C  0.16687285  0.22406596  0.03089057     0.36370
H331        H  0.20118703  0.32925637  0.02000822     0.16740
O332        O  0.14042828  0.35503420  0.04600727    -0.60180
H333        H  0.11605803  0.20651869  0.05400899     0.16760
O334        O  0.17291159  0.18115718  0.02384550    -0.60280
H335        H  0.19632631  0.17089063  0.03384469     0.43750
H336        H  0.13134535  0.36633009  0.02944780     0.43710
C337        C  0.28007397  0.26899036  0.01781166    -0.05350
C338        C  0.28559585  0.24554201  0.04049474    -0.32780
C339        C  0.32012996  0.25309227  0.05542372     0.36470
C340        C  0.34947624  0.28456163  0.04769020    -0.05710
C341        C  0.34171873  0.31012986  0.02612298    -0.32680
C342        C  0.30777382  0.30268438  0.01137049     0.36370
H343        H  0.26501466  0.21887521  0.04554683     0.16740
O344        O  0.32584078  0.22774300  0.07654333    -0.60180
H345        H  0.36318811  0.33489519  0.01965730     0.16760
O346        O  0.30282246  0.32704570  0.98970687    -0.60280
H347        H  0.32711186  0.32183851  0.97952057     0.43750
H348        H  0.31302332  0.24448163  0.09008498     0.43710
C349        C  0.12602374  0.22859724  0.93988203    -0.05350
C350        C  0.13013166  0.27083986  0.94984233    -0.32780
C351        C  0.16163634  0.28015128  0.96655435     0.36470
C352        C  0.18867183  0.24636915  0.97404897    -0.05710
C353        C  0.18729084  0.20591307  0.96154507    -0.32680
C354        C  0.15687888  0.19771400  0.94390096     0.36370
H355        H  0.10751032  0.29570767  0.94601506     0.16740
O356        O  0.16552444  0.32215547  0.97577536    -0.60180
H357        H  0.20858800  0.18009151  0.96618979     0.16760
O358        O  0.15698191  0.15917054  0.93084050    -0.60280
H359        H  0.17295433  0.16593544  0.91566501     0.43750
H360        H  0.14015759  0.32796169  0.98477654     0.43710
C361        C  0.27841299  0.23206270  0.97666437    -0.05350
C362        C  0.28501015  0.25578916  0.95423572    -0.32780
C363        C  0.31950851  0.24779421  0.93984025     0.36470
C364        C  0.34762931  0.21577339  0.94800165    -0.05710
C365        C  0.33833869  0.18952586  0.96905908    -0.32680
C366        C  0.30413748  0.19710927  0.98311195     0.36370
H367        H  0.26561875  0.28318560  0.94916675     0.16740
O368        O  0.32672637  0.27366997  0.91909835    -0.60180
H369        H  0.35899918  0.16455185  0.97585012     0.16760
O370        O  0.29757424  0.17259303  0.00452467    -0.60280
H371        H  0.32176757  0.17686518  0.01518665     0.43750
H372        H  0.31326645  0.25796277  0.90520262     0.43710
C373        C  0.12560888  0.48388238  0.05928193    -0.05350
C374        C  0.15581630  0.45232195  0.05740225    -0.32780
C375        C  0.18663481  0.45760779  0.03993096     0.36470
C376        C  0.18965761  0.49723757  0.02582135    -0.05710
C377        C  0.16317485  0.53203553  0.03129844    -0.32680
C378        C  0.13075709  0.52526157  0.04754028     0.36370
H379        H  0.15300678  0.42151631  0.06779344     0.16740
O380        O  0.20959085  0.42174201  0.03440319    -0.60180
H381        H  0.16525038  0.06328229  0.02130855     0.16760
O382        O  0.10190059  0.05718680  0.04939396    -0.60280
H383        H  0.10965904  0.07441911  0.06428873     0.43750
H384        H  0.22397282  0.41378114  0.05009055     0.43710
C385        C  0.27888437  0.48413004  0.02379840    -0.05350
C386        C  0.29380987  0.51638053  0.04022569    -0.32780
C387        C  0.32898675  0.50840713  0.05431067     0.36470
C388        C  0.34839669  0.46737015  0.05244951    -0.05710
C389        C  0.32953465  0.43348407  0.03895205    -0.32680
C390        C  0.29580258  0.44183219  0.02428682     0.36370
H391        H  0.28023413  0.04880723  0.04058880     0.16740
O392        O  0.34546569  0.04166276  0.06830439    -0.60180
H393        H  0.34239579  0.40084114  0.03835852     0.16760
O394        O  0.28179933  0.40972374  0.00854896    -0.60280
H395        H  0.27227064  0.38508646  0.01951162     0.43750
H396        H  0.36256185  0.05915937  0.05659103     0.43710
C397        C  0.18943369  0.00792504  0.97925030    -0.05350
C398        C  0.16605087  0.97271589  0.96974144    -0.32780
C399        C  0.13328917  0.98098769  0.95361282     0.36470
C400        C  0.12315641  0.02493994  0.94754147    -0.05710
C401        C  0.14862651  0.05926298  0.95545034    -0.32680
C402        C  0.18159110  0.05130715  0.97098715     0.36370
H403        H  0.17137102  0.93913102  0.97633850     0.16740
O404        O  0.10887966  0.94657731  0.94642562    -0.60180
H405        H  0.14074034  0.09304283  0.95146269     0.16760
O406        O  0.20391319  0.08640634  0.97967260    -0.60280
H407        H  0.18478683  0.10675327  0.98767473     0.43750
H408        H  0.11942616  0.93753267  0.93003110     0.43710
C409        C  0.27891899  0.00968398  0.97941734    -0.05350
C410        C  0.29552212  0.97719578  0.96400338    -0.32780
C411        C  0.32985160  0.98679006  0.94940487     0.36470
C412        C  0.34750775  0.02938417  0.95001288    -0.05710
C413        C  0.32751442  0.06266883  0.96287501    -0.32680
C414        C  0.29474135  0.05287707  0.97812155     0.36370
H415        H  0.28382267  0.94361804  0.96468289     0.16740
O416        O  0.34772063  0.95350877  0.93651397    -0.60180
H417        H  0.33910749  0.09613071  0.96274693     0.16760
O418        O  0.28104878  0.08477771  0.99375616    -0.60280
H419        H  0.30295100  0.08910509  0.00614064     0.43750
H420        H  0.33570420  0.95516436  0.91955790     0.43710
C421        C  0.12958773  0.42539845  0.72708501    -0.05350
C422        C  0.15797520  0.45839396  0.73287761    -0.32780
C423        C  0.17087541  0.48934341  0.71493640     0.36470
C424        C  0.15586377  0.98756069  0.69028110    -0.05710
C425        C  0.12866495  0.45341884  0.68409486    -0.32680
C426        C  0.11498922  0.42289223  0.70236368     0.36370
H427        H  0.16967428  0.46076610  0.75172541     0.16740
O428        O  0.19904882  0.02052072  0.72167198    -0.60180
H429        H  0.11693008  0.95133639  0.66525883     0.16760
O430        O  0.08633557  0.39200006  0.69605955    -0.60280
H431        H  0.06017722  0.40606177  0.69958053     0.43750
H432        H  0.18368660  0.54398759  0.73005217     0.43710
C433        C  0.15795460  0.26292865  0.69368713    -0.05350
C434        C  0.18384247  0.29587152  0.70308562    -0.32780
C435        C  0.16994382  0.32687923  0.72025714     0.36470
C436        C  0.12940745  0.32568010  0.72780580    -0.05710
C437        C  0.10357474  0.29300187  0.71794439    -0.32680
C438        C  0.11764687  0.26165118  0.70121688     0.36370
H439        H  0.21518852  0.29679618  0.69760118     0.16740
O440        O  0.19665053  0.35610484  0.73080748    -0.60180
H441        H  0.07246539  0.29105555  0.72379055     0.16760
O442        O  0.09164798  0.23020834  0.69208415    -0.60280
H443        H  0.09336300  0.20487153  0.70404349     0.43750
H444        H  0.20382978  0.37746320  0.71726529     0.43710
C445        C  0.35567193  0.42501456  0.72737220    -0.05350
C446        C  0.38582518  0.45443484  0.71887593    -0.32780
C447        C  0.37876804  0.48321595  0.69861341     0.36470
C448        C  0.34126813  0.98263999  0.68644207    -0.05710
C449        C  0.31137112  0.95253838  0.69448550    -0.32680
C450        C  0.31817725  0.42421408  0.71501089     0.36370
H451        H  0.41464051  0.45578655  0.72841570     0.16740
O452        O  0.40818109  0.01281561  0.69137680    -0.60180
H453        H  0.28198628  0.95257568  0.68560431     0.16760
O454        O  0.28749774  0.39740533  0.72351367    -0.60280
H455        H  0.27280994  0.41544068  0.73572600     0.43750
H456        H  0.42379552  0.49730055  0.67850989     0.43710
C457        C  0.34512317  0.25893875  0.69393398    -0.05350
C458        C  0.31820568  0.26121015  0.71387175    -0.32780
C459        C  0.32151230  0.29501981  0.73111754     0.36470
C460        C  0.35258477  0.32686282  0.72894009    -0.05710
C461        C  0.37827915  0.32612182  0.70825155    -0.32680
C462        C  0.37448517  0.29240951  0.69067130     0.36370
H463        H  0.29413642  0.23697127  0.71597016     0.16740
O464        O  0.29526376  0.29564161  0.75076085    -0.60180
H465        H  0.40259607  0.35012764  0.70652328     0.16760
O466        O  0.40002085  0.29187023  0.67068345    -0.60280
H467        H  0.42327558  0.27390126  0.67635297     0.43750
H468        H  0.27194976  0.31305153  0.74464902     0.43710
C469        C  0.15345926  0.50930241  0.30974842    -0.05350
C470        C  0.17433653  0.01027943  0.28707764    -0.32780
C471        C  0.16510087  0.04142026  0.26837538     0.36470
C472        C  0.13435906  0.07250605  0.27194397    -0.05710
C473        C  0.11415536  0.07256505  0.29491886    -0.32680
C474        C  0.12392111  0.04157517  0.31388694     0.36370
H475        H  0.19810049  0.48677628  0.28377812     0.16740
O476        O  0.18661089  0.04157461  0.24660900    -0.60180
H477        H  0.08989932  0.09561469  0.29781669     0.16760
O478        O  0.10293800  0.54151497  0.33582555    -0.60280
H479        H  0.11587025  0.06493778  0.34595993     0.43750
H480        H  0.17604947  0.01603303  0.23707820     0.43710
C481        C  0.15286111  0.23186524  0.30975696    -0.05350
C482        C  0.18012067  0.19960557  0.30208761    -0.32780
C483        C  0.16977548  0.16993110  0.28318114     0.36470
C484        C  0.13113784  0.17149508  0.27226370    -0.05710
C485        C  0.10359522  0.20311503  0.28058770    -0.32680
C486        C  0.11446014  0.23358616  0.29888130     0.36370
H487        H  0.21014800  0.19862844  0.31005475     0.16740
O488        O  0.19853693  0.14229398  0.27406143    -0.60180
H489        H  0.07390915  0.20513788  0.27219918     0.16760
O490        O  0.08734919  0.26483362  0.30606140    -0.60280
H491        H  0.09149020  0.29027951  0.29438835     0.43750
H492        H  0.20521084  0.12163428  0.28802319     0.43710
C493        C  0.35399789  0.07180793  0.27211060    -0.05350
C494        C  0.38278568  0.04030854  0.27954292    -0.32780
C495        C  0.37506057  0.01055184  0.29917126     0.36470
C496        C  0.33842735  0.51244146  0.31186018    -0.05710
C497        C  0.31006507  0.54473443  0.30508296    -0.32680
C498        C  0.31737858  0.07395175  0.28507319     0.36370
H499        H  0.41094734  0.03799899  0.26957784     0.16740
O500        O  0.40290611  0.47889501  0.30532130    -0.60180
H501        H  0.28134949  0.54582553  0.31453199     0.16760
O502        O  0.28788374  0.10279328  0.27757776    -0.60280
H503        H  0.27010740  0.08557889  0.26632315     0.43750
H504        H  0.42021398  0.99257501  0.31826942     0.43710
C505        C  0.33745580  0.23634375  0.30616865    -0.05350
C506        C  0.36739179  0.20439589  0.31020419    -0.32780
C507        C  0.37512594  0.17227087  0.29216305     0.36470
C508        C  0.35176298  0.17097338  0.27014575    -0.05710
C509        C  0.32084897  0.20183636  0.26672975    -0.32680
C510        C  0.31350154  0.23410522  0.28441482     0.36370
H511        H  0.38553837  0.20516387  0.32704457     0.16740
O512        O  0.40627527  0.14339108  0.29585480    -0.60180
H513        H  0.30272094  0.20147983  0.24987768     0.16760
O514        O  0.28269469  0.26324081  0.28013658    -0.60280
H515        H  0.25910681  0.25006882  0.28884558     0.43750
H516        H  0.43020772  0.15856496  0.28863099     0.43710
C517        C  0.05017968  0.25038489  0.52501964    -0.05350
C518        C  0.05591222  0.20851868  0.53588244    -0.32780
C519        C  0.08768028  0.20154696  0.55260468     0.36470
C520        C  0.11379424  0.23685659  0.55874503    -0.05710
C521        C  0.10516575  0.27974410  0.55016414    -0.32680
C522        C  0.07336681  0.28668395  0.53333558     0.36370
H523        H  0.03772744  0.18054436  0.52998140     0.16740
O524        O  0.09433963  0.15968927  0.56200440    -0.60180
H525        H  0.12507507  0.30711249  0.55473834     0.16760
O526        O  0.06710685  0.32839413  0.52366695    -0.60280
H527        H  0.05022933  0.34339979  0.53609636     0.43750
H528        H  0.10160914  0.14179986  0.54742689     0.43710
C529        C  0.46323362  0.24275324  0.52828946    -0.05350
C530        C  0.44761373  0.19991477  0.53029584    -0.32780
C531        C  0.41419236  0.19113772  0.54510047     0.36470
C532        C  0.39551284  0.22537570  0.55818464    -0.05710
C533        C  0.41495023  0.26680977  0.55928200    -0.32440
C534        C  0.44921839  0.27547167  0.54458035     0.36370
H535        H  0.45850684  0.17420601  0.51822526     0.16740
O536        O  0.39742462  0.14980676  0.54444746    -0.60180
H537        H  0.40193115  0.29331564  0.56986479     0.16760
O538        O  0.46614905  0.31706554  0.54433874    -0.60280
H539        H  0.48605121  0.31664282  0.55818253     0.43750
H540        H  0.37993407  0.15138858  0.52949606     0.43710
C541        C  0.04570247  0.25887140  0.47846153    -0.05350
C542        C  0.05418749  0.30110295  0.46861175    -0.32780
C543        C  0.08572583  0.30725192  0.45171888     0.36470
C544        C  0.10906657  0.27083811  0.44442661    -0.05710
C545        C  0.09714512  0.22800801  0.45168747    -0.32680
C546        C  0.06587249  0.22188442  0.46892017     0.36370
H547        H  0.03879839  0.32977352  0.47567925     0.16740
O548        O  0.09576213  0.34948313  0.44407502    -0.60180
H549        H  0.11456994  0.19972969  0.44606734     0.16760
O550        O  0.05683286  0.17993330  0.47758687    -0.60280
H551        H  0.07989276  0.17116222  0.48834279     0.43750
H552        H  0.08016352  0.35466776  0.42850546     0.43710
C553        C  0.45602011  0.26453187  0.48332072    -0.05350
C554        C  0.43003852  0.29955005  0.48715835    -0.32780
C555        C  0.39353363  0.30194148  0.47483592     0.36470
C556        C  0.38476920  0.27385935  0.45450218    -0.05710
C557        C  0.41268654  0.24080417  0.44878099    -0.32680
C558        C  0.44742152  0.23480546  0.46382013     0.36370
H559        H  0.43588991  0.32291728  0.50183830     0.16740
O560        O  0.36622240  0.33147329  0.48372488    -0.60180
H561        H  0.40659359  0.21832719  0.43365164     0.16760
O562        O  0.47166452  0.19913014  0.45993724    -0.60280
H563        H  0.45942270  0.17441335  0.46976426     0.43750
H564        H  0.35141070  0.31511044  0.49704686     0.43710
C565        C  0.03971095  0.02119659  0.51871159    -0.05350
C566        C  0.06450922  0.05543758  0.50980217    -0.32780
C567        C  0.10149507  0.06427488  0.52090597     0.36470
C568        C  0.11227767  0.04364662  0.54391238    -0.05710
C569        C  0.08545890  0.01226691  0.55435282    -0.32680
C570        C  0.04981692  0.00019975  0.54160300     0.36370
H571        H  0.05800348  0.57104469  0.49188747     0.16740
O572        O  0.12788907  0.59057912  0.50769856    -0.60180
H573        H  0.09291574  0.99568699  0.57181633     0.16760
O574        O  0.02708397  0.96543479  0.55053165    -0.60280
H575        H  0.01276346  0.97725570  0.56513779     0.43750
H576        H  0.14390216  0.56983270  0.49766996     0.43710
C577        C  0.37496489  0.03226111  0.54083680    -0.05350
C578        C  0.39606021  0.99369424  0.54763928    -0.32780
C579        C  0.43152134  0.98248358  0.53471617     0.36470
C580        C  0.44909833  0.01337922  0.51773432    -0.05710
C581        C  0.43062390  0.05397608  0.51402313    -0.32680
C582        C  0.39122975  0.05928756  0.52152797     0.36370
H583        H  0.38357075  0.97084478  0.56139013     0.16740
O584        O  0.44656511  0.44035097  0.53689421    -0.60180
H585        H  0.44357030  0.07828141  0.50139668     0.16760
O586        O  0.36766936  0.08664215  0.50715339    -0.60280
H587        H  0.35544699  0.06730360  0.49431759     0.43750
H588        H  0.45056085  0.43458430  0.55499715     0.43710
C589        C  0.11409766  0.45651219  0.45588971    -0.05350
C590        C  0.08756160  0.48742055  0.44513627    -0.32780
C591        C  0.05179157  0.49852554  0.45736980     0.36470
C592        C  0.04163989  0.47723142  0.48013306    -0.05710
C593        C  0.06605916  0.44359523  0.48942461    -0.32680
C594        C  0.10274939  0.43479970  0.47852676     0.36370
H595        H  0.09539466  0.50449188  0.42788759     0.16740
O596        O  0.02915826  0.53290131  0.44823377    -0.60180
H597        H  0.05914458  0.42785837  0.50723786     0.16760
O598        O  0.12876744  0.40873980  0.49201442    -0.60280
H599        H  0.11730677  0.37828531  0.49145940     0.43750
H600        H  0.01485168  0.52088169  0.43349622     0.43710
C601        C  0.38912493  0.46257767  0.44305476    -0.05350
C602        C  0.40166358  0.50677635  0.44376474    -0.32780
C603        C  0.43480110  0.51879146  0.45866294     0.36470
C604        C  0.45389397  0.48630307  0.47389959    -0.05710
C605        C  0.44535350  0.44162711  0.46984498    -0.32680
C606        C  0.41429164  0.42974327  0.45358506     0.36370
H607        H  0.38434884  0.03219805  0.43422177     0.16740
O608        O  0.44837051  0.06197808  0.45840341    -0.60180
H609        H  0.46114272  0.41610487  0.48033251     0.16760
O610        O  0.40747983  0.38584706  0.44899898    -0.60280
H611        H  0.42210227  0.37995355  0.43334998     0.43750
H612        H  0.42433135  0.08106588  0.45969180     0.43710
C613        C  0.01596122  0.49830633  0.49900322     0.00680
C614        C  0.47542965  0.99883265  0.49721852     0.00680
C615        C  0.48378024  0.75429195  0.50445345     0.00680
C616        C  0.02425794  0.75471458  0.50257734     0.00680
C617        C  0.34769798  0.95086395  0.43536673     0.42570
N618        N  0.29171758  0.94506638  0.41552634     0.01460
C619        C  0.17100064  0.75965150  0.41336470    -0.06420
H620        H  0.34099512  0.73576333  0.40556374     0.06950
C621        C  0.31423424  0.81458086  0.31992202    -0.06770
Co622      Co  0.24918661  0.86195892  0.43132566     0.74180
N623        N  0.29588205  0.78597403  0.41213059    -0.25950
Co624      Co  0.25072151  0.78607863  0.38409295     0.74070
C625        C  0.32950448  0.76999929  0.32526777     0.42670
N626        N  0.28906287  0.92506005  0.34265736     0.01080
N627        N  0.29337112  0.79156755  0.35595316     0.01180
N628        N  0.17369439  0.81088667  0.44351988    -0.46790
H629        H  0.33272809  0.89152131  0.46060743     0.06940
N630        N  0.29278458  0.81521868  0.42988407     0.01470
N631        N  0.20698553  0.78784232  0.35617406     0.01210
C632        C  0.16586442  0.76491236  0.32804877     0.42810
N633        N  0.28729875  0.95422272  0.36068907    -0.25400
C634        C  0.17782544  0.90894241  0.45029147    -0.06320
N635        N  0.32517856  0.96958709  0.41692375    -0.46510
N636        N  0.18489895  0.75335176  0.34939824    -0.46730
C637        C  0.15283136  0.94617481  0.44362236     0.42580
N638        N  0.20608836  0.81269262  0.42949285     0.01450
N639        N  0.20145704  0.95080699  0.36090150    -0.25420
N640        N  0.29184118  0.91172842  0.43169728    -0.25920
N641        N  0.20209154  0.92215414  0.34250224     0.01090
H642        H  0.17607374  0.01581831  0.36406431     0.06980
H643        H  0.17518188  0.82832233  0.30433187     0.07020
N644        N  0.20556817  0.78343522  0.41150927    -0.25970
N645        N  0.29151007  0.82467754  0.33953931    -0.25580
N646        N  0.20155929  0.94172583  0.41734743     0.01460
C647        C  0.34664387  0.78067060  0.44021875     0.42860
C648        C  0.31091427  0.98891721  0.35486715    -0.06830
N649        N  0.20509221  0.82116056  0.33991967    -0.25580
H650        H  0.31473115  0.83298969  0.30244644     0.07000
N651        N  0.32151259  0.81272577  0.44662148    -0.46800
H652        H  0.31241639  0.01964942  0.36495469     0.06990
C653        C  0.16416954  0.97525336  0.32889501     0.42690
C654        C  0.32489857  0.91400862  0.44566816    -0.06330
Co655      Co  0.24514088  0.94904933  0.38889443     0.73820
N656        N  0.31224918  0.93897198  0.32407804    -0.46520
C657        C  0.14985339  0.77878051  0.43456040     0.42960
N658        N  0.16922465  0.96554724  0.42277484    -0.46510
Co659      Co  0.24691433  0.87337053  0.34093626     0.73890
C660        C  0.17952770  0.80985719  0.32157928    -0.06830
C661        C  0.32968738  0.76216647  0.41689828    -0.06400
N662        N  0.20595396  0.90837891  0.43309971    -0.25920
N663        N  0.31510764  0.75816379  0.34792418    -0.46690
H664        H  0.16066499  0.73478165  0.40046109     0.06960
C665        C  0.17779185  0.98488913  0.35422695    -0.06810
Cl666      Cl  0.24792988  0.86763809  0.38613573    -0.49810
C667        C  0.32776596  0.97868714  0.33066095     0.42720
H668        H  0.17588843  0.88455043  0.46505624     0.06930
N669        N  0.18092766  0.93612606  0.32295026    -0.46520
C670        C  0.33730316  0.54589272  0.55358233     0.42570
N671        N  0.29078740  0.55503921  0.58106265     0.01460
C672        C  0.17586073  0.74319570  0.59030515    -0.06420
H673        H  0.34567812  0.75972530  0.60301031     0.06950
C674        C  0.32191557  0.68063787  0.68062582    -0.06770
Co675      Co  0.24983091  0.64077623  0.56953575     0.74180
N676        N  0.29878541  0.71423840  0.59103368    -0.25950
Co677      Co  0.25469298  0.71240079  0.61857398     0.74070
C678        C  0.33828888  0.72503672  0.67502553     0.42670
N679        N  0.29350977  0.57127384  0.65604139     0.01080
N680        N  0.29867770  0.70477028  0.64547232     0.01180
N681        N  0.17628812  0.69459441  0.55872392    -0.46790
H682        H  0.32007981  0.61192719  0.53405723     0.06940
N683        N  0.29633445  0.68669526  0.57231864     0.01470
N684        N  0.21228957  0.70900257  0.64678992     0.01210
C685        C  0.17316979  0.73062335  0.67576951     0.42810
N686        N  0.29080630  0.54300875  0.63748013    -0.25400
C687        C  0.17479040  0.59491064  0.55093614    -0.06320
N688        N  0.31967321  0.52727525  0.57424407    -0.46510
N689        N  0.19107767  0.74311048  0.65430504    -0.46730
C690        C  0.15067481  0.55591349  0.55678082     0.42580
N691        N  0.20848116  0.69043488  0.57295380     0.01450
N692        N  0.20512294  0.54600565  0.63879730    -0.25420
N693        N  0.28972179  0.59039697  0.56642114    -0.25920
N694        N  0.20672845  0.57427598  0.65740718     0.01090
H695        H  0.17843932  0.48091409  0.63551120     0.06980
H696        H  0.18282307  0.66619843  0.69855960     0.07020
N697        N  0.20917203  0.71802679  0.59170297    -0.25970
N698        N  0.29734875  0.67120201  0.66150702    -0.25580
N699        N  0.20125154  0.55951280  0.58224340     0.01460
C700        C  0.35398137  0.71851691  0.56761122     0.42860
C701        C  0.31350616  0.50767790  0.64310165    -0.06830
N702        N  0.21095281  0.67494176  0.66258350    -0.25580
H703        H  0.32328837  0.66200557  0.69801045     0.07000
N704        N  0.32841595  0.68833024  0.55797597    -0.46800
H705        H  0.31372457  0.47714436  0.63281385     0.06990
C706        C  0.16896703  0.52079275  0.67113834     0.42690
C707        C  0.31677163  0.58733281  0.54863613    -0.06330
Co708      Co  0.24687485  0.54971076  0.60968040     0.73820
N709        N  0.31665408  0.55636214  0.67444780    -0.46520
C710        C  0.15412682  0.72683805  0.56840815     0.42960
N711        N  0.16878775  0.53514629  0.57661922    -0.46510
Co712      Co  0.25208106  0.62272343  0.65956896     0.73890
C713        C  0.18668349  0.68547748  0.68154702    -0.06830
C714        C  0.33416579  0.73646317  0.58953774    -0.06400
N715        N  0.20450421  0.59461753  0.56745495    -0.25920
N716        N  0.32234432  0.73740334  0.65291958    -0.46690
H717        H  0.16687627  0.76756557  0.60369323     0.06960
C718        C  0.18139822  0.51154128  0.64559432    -0.06810
Cl719      Cl  0.25077722  0.63121178  0.61447819    -0.49810
C720        C  0.33109572  0.51674878  0.66757071     0.42720
H721        H  0.17125033  0.62036372  0.53682596     0.06930
N722        N  0.18601284  0.56007828  0.67699382    -0.46520
C723        C  0.25440752  0.99698066  0.00169446     0.00680
C724        C  0.21363601  0.00031343  0.00229121     0.00680
C725        C  0.25441279  0.75093956  0.99722918     0.00680
C726        C  0.21351301  0.75165863  0.99720197     0.00680
C727        C  0.38851865  0.53985885  0.94041703     0.42570
N728        N  0.44064006  0.54663417  0.91691123     0.01460
C729        C  0.06308870  0.73275924  0.90899939    -0.06420
H730        H  0.39430285  0.75215557  0.90055278     0.06950
C731        C  0.40923976  0.68027835  0.82163153    -0.06770
Co732      Co  0.48765610  0.62812981  0.93025342     0.74180
N733        N  0.44032613  0.70504288  0.91083631    -0.25950
Co734      Co  0.48239904  0.70506340  0.88215821     0.74070
C735        C  0.39447818  0.72426923  0.82812390     0.42670
N736        N  0.43581628  0.56920819  0.84308121     0.01080
N737        N  0.43650366  0.70138589  0.85602189     0.01180
N738        N  0.06553473  0.67991083  0.93932699    -0.46790
H739        H  0.40826523  0.59912449  0.96400045     0.06940
N740        N  0.44356470  0.67624566  0.92938261     0.01470
N741        N  0.02299521  0.70326933  0.85300736     0.01210
C742        C  0.06146815  0.72678721  0.82359390     0.42810
N743        N  0.43821914  0.53951689  0.86136707    -0.25400
C744        C  0.06199542  0.57652705  0.94576368    -0.06320
N745        N  0.40741546  0.52227527  0.92053406    -0.46510
N746        N  0.04538479  0.73741646  0.84563723    -0.46730
C747        C  0.08319457  0.53770000  0.93767775     0.42580
N748        N  0.03193593  0.67683980  0.92609810     0.01450
N749        N  0.02415494  0.53995058  0.85852417    -0.25420
N750        N  0.44383040  0.57919542  0.93293744    -0.25920
N751        N  0.02261650  0.56938384  0.83998187     0.01090
H752        H  0.04974323  0.47478966  0.86171462     0.06980
H753        H  0.04736846  0.66557130  0.79988011     0.07020
N754        N  0.02982529  0.70690315  0.90803538    -0.25970
N755        N  0.43549998  0.66922966  0.83964579    -0.25580
N756        N  0.03055220  0.54658909  0.91477706     0.01460
C757        C  0.38746926  0.70878637  0.93629302     0.42860
C758        C  0.41375164  0.50539356  0.85611182    -0.06830
N759        N  0.02192012  0.67100925  0.83662396    -0.25580
H760        H  0.40547750  0.66288923  0.80427501     0.07000
N761        N  0.41299369  0.67762100  0.94487237    -0.46800
H762        H  0.41287885  0.47412677  0.86625791     0.06990
C763        C  0.05925060  0.51655116  0.82594198     0.42690
C764        C  0.41329044  0.57667126  0.94886991    -0.06330
Co765      Co  0.48355524  0.54219274  0.88817736     0.73820
N766        N  0.41136948  0.55623787  0.82498503    -0.46520
C767        C  0.08691325  0.71406658  0.92956350     0.42960
N768        N  0.06212826  0.52022629  0.91833388    -0.46510
Co769      Co  0.47905016  0.61962333  0.83958468     0.73890
C770        C  0.04542613  0.68296270  0.81730514    -0.06830
C771        C  0.40580575  0.72761347  0.91356693    -0.06400
N772        N  0.03055219  0.57975819  0.93048327    -0.25920
N773        N  0.41302024  0.73487331  0.84964705    -0.46690
H774        H  0.07060258  0.75948220  0.89612498     0.06960
C775        C  0.04708035  0.50588404  0.85155831    -0.06810
Cl776      Cl  0.48335678  0.62364677  0.88491306    -0.49810
C777        C  0.39566883  0.51650195  0.83196042     0.42720
H778        H  0.06926036  0.59899975  0.96067474     0.06930
N779        N  0.04240195  0.55608337  0.82009178    -0.46520
C780        C  0.11441190  0.85279351  0.74887717     0.00680
C781        C  0.11269418  0.89819387  0.74821364     0.00680
C782        C  0.36309203  0.85368761  0.75103749     0.00680
C783        C  0.36304140  0.89882771  0.75070353     0.00680
C784        C  0.11989098  0.59972841  0.25013403     0.00680
C785        C  0.12012732  0.64515630  0.24986016     0.00680
C786        C  0.36144687  0.59799062  0.24889766     0.00680
C787        C  0.36246252  0.64316162  0.24843601     0.00680
C788        C  0.39005986  0.95957918  0.06123856     0.42570
N789        N  0.44213322  0.95267934  0.08478915     0.01460
C790        C  0.06458165  0.76831819  0.08497538    -0.06420
H791        H  0.39616199  0.74570766  0.09508237     0.06950
C792        C  0.41467885  0.81316003  0.17693979    -0.06770
Co793      Co  0.48943565  0.87426030  0.06900228     0.74180
N794        N  0.44210459  0.79487197  0.08650578    -0.25950
Co795      Co  0.48563555  0.79294050  0.11510383     0.74070
C796        C  0.40057543  0.76874480  0.17045254     0.42670
N797        N  0.44013817  0.92538950  0.15834910     0.01080
N798        N  0.44094453  0.79353834  0.14214946     0.01180
N799        N  0.06424745  0.82373595  0.05619346    -0.46790
H800        H  0.41096826  0.90421979  0.03565149     0.06940
N801        N  0.44507039  0.82532019  0.06872093     0.01470
N802        N  0.02735619  0.79333609  0.14422614     0.01210
C803        C  0.06592983  0.76857568  0.17348904     0.42810
N804        N  0.44111802  0.95561943  0.14030644    -0.25400
C805        C  0.06557114  0.92932510  0.05663605    -0.06320
N806        N  0.40841103  0.97576652  0.08189337    -0.46510
N807        N  0.04943351  0.75893050  0.15117601    -0.46730
C808        C  0.08553084  0.96805671  0.06679651     0.42580
N809        N  0.03289089  0.82589416  0.07109407     0.01450
N810        N  0.02714721  0.95707407  0.14239196    -0.25420
N811        N  0.44591239  0.92222986  0.06766348    -0.25920
N812        N  0.02704072  0.92626364  0.16018275     0.01090
H813        H  0.05335390  0.02250885  0.13977525     0.06980
H814        H  0.05273765  0.82839905  0.19808785     0.07020
N815        N  0.03205656  0.79414689  0.08827506    -0.25970
N816        N  0.44022293  0.82519232  0.15885993    -0.25580
N817        N  0.03152732  0.95540266  0.08716868     0.01460
C818        C  0.38886381  0.79217487  0.06055231     0.42860
C819        C  0.41710666  0.98909741  0.14625089    -0.06830
N820        N  0.02674373  0.82464291  0.16122401    -0.25580
H821        H  0.41141977  0.83019357  0.19439956     0.07000
N822        N  0.41439019  0.82455622  0.05304178    -0.46800
H823        H  0.41586347  0.02068925  0.13646552     0.06990
C824        C  0.06502136  0.97850850  0.17432074     0.42690
C825        C  0.41558103  0.92527213  0.05154092    -0.06330
Co826      Co  0.48537340  0.95599160  0.11338814     0.73820
N827        N  0.41730839  0.93767800  0.17717352    -0.46520
C828        C  0.08607148  0.78864431  0.06369068     0.42960
N829        N  0.06296449  0.98286956  0.08572341    -0.46510
Co830      Co  0.48363039  0.87537824  0.15989512     0.73890
C831        C  0.05055850  0.81200182  0.18033624    -0.06830
C832        C  0.40744928  0.77187133  0.08294652    -0.06400
N833        N  0.03278765  0.92369083  0.07055814    -0.25920
N834        N  0.41832876  0.75895193  0.14867382    -0.46690
H835        H  0.07279994  0.73998294  0.09644635     0.06960
C836        C  0.05094919  0.99080964  0.14938682    -0.06810
Cl837      Cl  0.48617081  0.87460893  0.11448135    -0.49810
C838        C  0.40105137  0.97721203  0.17068759     0.42720
H839        H  0.07443067  0.90870826  0.04139003     0.06930
N840        N  0.04856065  0.93835519  0.17983803    -0.46520
C841        C  0.37016107  0.57125059  0.22645692    -0.05350
C842        C  0.40889201  0.57161178  0.21619271    -0.32780
C843        C  0.41900895  0.54147611  0.19768481     0.36470
C844        C  0.39029206  0.01023520  0.18936644    -0.05710
C845        C  0.35144387  0.01038025  0.19921930    -0.32680
C846        C  0.34128310  0.54055539  0.21768284     0.36370
H847        H  0.43173406  0.59408150  0.22324716     0.16740
O848        O  0.45764280  0.54113773  0.18880173    -0.60180
H849        H  0.32909294  0.98672955  0.19280111     0.16760
O850        O  0.30298870  0.53990410  0.22710475    -0.60280
H851        H  0.30235058  0.01476956  0.23925135     0.43750
H852        H  0.45850009  0.56452979  0.17560722     0.43710
C853        C  0.37492674  0.66910311  0.22603280    -0.05350
C854        C  0.40874217  0.69674510  0.22834840    -0.32780
C855        C  0.41732644  0.72909619  0.21030971     0.36470
C856        C  0.39210326  0.73386532  0.18923572    -0.05710
C857        C  0.35962052  0.70441596  0.18603235    -0.32680
C858        C  0.35054351  0.67243403  0.20451859     0.36370
H859        H  0.42776076  0.69436549  0.24479134     0.16740
O860        O  0.45085235  0.75546681  0.21326858    -0.60180
H861        H  0.34050664  0.70729032  0.16966115     0.16760
O862        O  0.31716415  0.64582046  0.20185536    -0.60280
H863        H  0.29458570  0.66297230  0.20871642     0.43750
H864        H  0.44387973  0.77659177  0.22651824     0.43710
C865        C  0.07849314  0.01052877  0.19331939    -0.05350
C866        C  0.10754786  0.04307478  0.18728256    -0.32780
C867        C  0.12064277  0.57371967  0.20512945     0.36470
C868        C  0.10350032  0.57300387  0.22912851    -0.05710
C869        C  0.07327058  0.54161445  0.23466742    -0.32680
C870        C  0.06102583  0.51039217  0.21718652     0.36370
H871        H  0.12094126  0.04391898  0.16890503     0.16740
O872        O  0.15095280  0.60312641  0.19920071    -0.60180
H873        H  0.05969062  0.54062008  0.25299938     0.16760
O874        O  0.03095711  0.48084133  0.22340844    -0.60280
H875        H  0.54448077  0.45674341  0.23294288     0.43750
H876        H  0.17626439  0.08658391  0.20195741     0.43710
C877        C  0.10752161  0.67234661  0.22759740    -0.05350
C878        C  0.06798561  0.66983916  0.21828359    -0.32780
C879        C  0.05452406  0.70021238  0.20001686     0.36470
C880        C  0.08040034  0.73426239  0.19122731    -0.05710
C881        C  0.12002495  0.73622923  0.20006837    -0.32680
C882        C  0.13372254  0.70551594  0.21799789     0.36370
H883        H  0.04710510  0.64540059  0.22584805     0.16740
O884        O  0.01535481  0.69795413  0.19191454    -0.60180
H885        H  0.14031083  0.76195353  0.19324749     0.16760
O886        O  0.17290134  0.70808550  0.22611452    -0.60280
H887        H  0.17382493  0.73334694  0.23772127     0.43750
H888        H  0.01535148  0.67637143  0.17816611     0.43710
C889        C  0.07223011  0.48432416  0.80688166    -0.05350
C890        C  0.05554862  0.48688678  0.78279749    -0.32780
C891        C  0.06695800  0.95743172  0.76423954     0.36470
C892        C  0.09595923  0.92458495  0.76930213    -0.05710
C893        C  0.11225487  0.92142646  0.79354914    -0.32680
C894        C  0.10013918  0.95052189  0.81234125     0.36370
H895        H  0.03328780  0.51179909  0.77827052     0.16740
O896        O  0.04927084  0.96076438  0.74110907    -0.60180
H897        H  0.13536233  0.89731780  0.79773778     0.16760
O898        O  0.11742937  0.94721149  0.83556613    -0.60280
H899        H  0.10349602  0.92187167  0.84390757     0.43750
H900        H  0.06221940  0.48686990  0.73289345     0.43710
C901        C  0.07526509  0.76089003  0.80566382    -0.05350
C902        C  0.04727466  0.78974986  0.79448957    -0.32780
C903        C  0.05976783  0.82196228  0.77698042     0.36470
C904        C  0.10076978  0.82581636  0.77075390    -0.05710
C905        C  0.12874728  0.79777864  0.78262921    -0.32680
C906        C  0.11624186  0.76565693  0.80007778     0.36370
H907        H  0.01558571  0.78655990  0.79893442     0.16740
O908        O  0.03164333  0.84836157  0.76546605    -0.60180
H909        H  0.16031290  0.80001123  0.77774665     0.16760
O910        O  0.14412011  0.73831686  0.81109531    -0.60280
H911        H  0.15246002  0.75351251  0.82658010     0.43750
H912        H  0.02536815  0.83377028  0.74945710     0.43710
C913        C  0.38538412  0.48324771  0.81319394    -0.05350
C914        C  0.41498681  0.95335055  0.80583337    -0.32780
C915        C  0.40795740  0.92458917  0.78599595     0.36470
C916        C  0.37054389  0.92507428  0.77354486    -0.05710
C917        C  0.34074175  0.95455712  0.78127221    -0.32680
C918        C  0.34813773  0.48386019  0.80078322     0.36370
H919        H  0.44433071  0.95370474  0.81477195     0.16740
O920        O  0.43874509  0.89888276  0.77760739    -0.60180
H921        H  0.31201128  0.95568186  0.77163930     0.16760
O922        O  0.31896759  0.51316058  0.80747443    -0.60280
H923        H  0.32329346  0.53963544  0.79658201     0.43750
H924        H  0.44477807  0.87768780  0.79143232     0.43710
C925        C  0.38632343  0.75918165  0.80940308    -0.05350
C926        C  0.41186893  0.76288481  0.78879796    -0.32780
C927        C  0.40647314  0.79622356  0.77096056     0.36470
C928        C  0.37473808  0.82652510  0.77325452    -0.05710
C929        C  0.35024018  0.82433999  0.79452224    -0.32680
C930        C  0.35611316  0.79090918  0.81269259     0.36370
H931        H  0.43633752  0.73983415  0.78650131     0.16740
O932        O  0.43141983  0.79773673  0.75067083    -0.60180
H933        H  0.32543160  0.84705977  0.79637513     0.16760
O934        O  0.33167634  0.78880337  0.83320259    -0.60280
H935        H  0.30870630  0.76954537  0.82829748     0.43750
H936        H  0.45193603  0.82068046  0.75452769     0.43710
C937        C  0.19017999  0.75894293  0.02033802    -0.05350
C938        C  0.18349500  0.80218589  0.02791253    -0.32780
C939        C  0.15003746  0.81170571  0.04248906     0.36470
C940        C  0.12500098  0.77743796  0.05197915    -0.05710
C941        C  0.13499014  0.73338231  0.04709519    -0.32680
C942        C  0.16687248  0.72406505  0.03089138     0.36370
H943        H  0.20118648  0.82925531  0.02000830     0.16740
O944        O  0.14042771  0.85503362  0.04600721    -0.60180
H945        H  0.11605776  0.70651817  0.05400996     0.16760
O946        O  0.17291130  0.68115611  0.02384662    -0.60280
H947        H  0.19632588  0.67088976  0.03384601     0.43750
H948        H  0.13134459  0.86632914  0.02944771     0.43710
C949        C  0.28007337  0.76898803  0.01781251    -0.05350
C950        C  0.28559534  0.74553995  0.04049567    -0.32780
C951        C  0.32012950  0.75309041  0.05542455     0.36470
C952        C  0.34947572  0.78455966  0.04769083    -0.05710
C953        C  0.34171807  0.81012768  0.02612355    -0.32680
C954        C  0.30777303  0.80268213  0.01137121     0.36370
H955        H  0.26501420  0.71887316  0.04554787     0.16740
O956        O  0.32584046  0.72774139  0.07654425    -0.60180
H957        H  0.36318752  0.83489277  0.01965766     0.16760
O958        O  0.30282159  0.82704311  0.98970749    -0.60280
H959        H  0.32711085  0.82183558  0.97952112     0.43750
H960        H  0.31302310  0.74448018  0.09008587     0.43710
C961        C  0.12602323  0.72859512  0.93988287    -0.05350
C962        C  0.13013118  0.77083784  0.94984303    -0.32780
C963        C  0.16163602  0.78014947  0.96655489     0.36470
C964        C  0.18867156  0.74636741  0.97404956    -0.05710
C965        C  0.18729061  0.70591129  0.96154570    -0.32680
C966        C  0.15687856  0.69771207  0.94390167     0.36370
H967        H  0.10750981  0.79570559  0.94601574     0.16740
O968        O  0.16552430  0.82215383  0.97577565    -0.60180
H969        H  0.20858790  0.68008984  0.96619036     0.16760
O970        O  0.15698180  0.65916875  0.93084108    -0.60280
H971        H  0.17295417  0.66593393  0.91566560     0.43750
H972        H  0.14015740  0.82796045  0.98477669     0.43710
C973        C  0.27841277  0.73205955  0.97666546    -0.05350
C974        C  0.28500973  0.75578541  0.95423661    -0.32780
C975        C  0.31950787  0.74778999  0.93984104     0.36470
C976        C  0.34762861  0.71576909  0.94800245    -0.05710
C977        C  0.33833810  0.68952195  0.96906007    -0.32680
C978        C  0.30413730  0.69710622  0.98311322     0.36370
H979        H  0.26561834  0.78318179  0.94916750     0.16740
O980        O  0.32672552  0.77366526  0.91909893    -0.60180
H981        H  0.35899833  0.66454753  0.97585098     0.16760
O982        O  0.29757444  0.67259080  0.00452628    -0.60280
H983        H  0.32176808  0.67686314  0.01518797     0.43750
H984        H  0.31326550  0.75795771  0.90520337     0.43710
C985        C  0.12560736  0.98388177  0.05928183    -0.05350
C986        C  0.15581505  0.95232158  0.05740222    -0.32780
C987        C  0.18663353  0.95760759  0.03993092     0.36470
C988        C  0.18965578  0.99723717  0.02582109    -0.05710
C989        C  0.16317258  0.03203484  0.03129794    -0.32680
C990        C  0.13075504  0.02526080  0.04753991     0.36370
H991        H  0.15300583  0.92151601  0.06779352     0.16740
O992        O  0.20959019  0.92174214  0.03440341    -0.60180
H993        H  0.16525313  0.56328321  0.02130938     0.16760
O994        O  0.10190301  0.55718794  0.04939449    -0.60280
H995        H  0.10966167  0.57441993  0.06428933     0.43750
H996        H  0.22397299  0.91378254  0.05009067     0.43710
C997        C  0.27888259  0.98412932  0.02379823    -0.05350
C998        C  0.29380721  0.01637828  0.04022676    -0.32780
C999        C  0.32898406  0.00840414  0.05431164     0.36470
C1000       C  0.34839498  0.96736795  0.05244904    -0.05710
C1001       C  0.32953380  0.93348301  0.03895021    -0.32680
C1002       C  0.29580165  0.94183190  0.02428521     0.36370
H1003       H  0.28023748  0.54880990  0.04058665     0.16740
O1004       O  0.34546950  0.54166709  0.06830194    -0.60180
H1005       H  0.34239547  0.90084050  0.03835552     0.16760
O1006       O  0.28179901  0.90972482  0.00854627    -0.60280
H1007       H  0.27226823  0.88508751  0.01950821     0.43750
H1008       H  0.36256586  0.55916170  0.05658776     0.43710
C1009       C  0.18943520  0.50792508  0.97925050    -0.05350
C1010       C  0.16605360  0.47271545  0.96974107    -0.32780
C1011       C  0.13329178  0.48098668  0.95361242     0.36470
C1012       C  0.12315767  0.52493878  0.94754162    -0.05710
C1013       C  0.14862660  0.55926240  0.95545108    -0.32680
C1014       C  0.18159127  0.55130722  0.97098791     0.36370
H1015       H  0.17137478  0.43913053  0.97633768     0.16740
O1016       O  0.10888348  0.44657570  0.94642462    -0.60180
H1017       H  0.14073937  0.59304211  0.95146391     0.16760
O1018       O  0.20391217  0.58640690  0.97967390    -0.60280
H1019       H  0.18478488  0.60675405  0.98767502     0.43750
H1020       H  0.11943047  0.43753226  0.93003000     0.43710
C1021       C  0.27892040  0.50968095  0.97941677    -0.05350
C1022       C  0.29552477  0.47719108  0.96400440    -0.32780
C1023       C  0.32985416  0.48678448  0.94940568     0.36470
C1024       C  0.34750869  0.52937948  0.95001162    -0.05710
C1025       C  0.32751396  0.56266544  0.96287183    -0.32680
C1026       C  0.29474131  0.55287457  0.97811889     0.36370
H1027       H  0.28382649  0.44361293  0.96468546     0.16740
O1028       O  0.34772494  0.45350175  0.93651686    -0.60180
H1029       H  0.33910602  0.59612786  0.96274209     0.16760
O1030       O  0.28104845  0.58477678  0.99375233    -0.60280
H1031       H  0.30295023  0.58910468  0.00613703     0.43750
H1032       H  0.33570901  0.45515384  0.91956058     0.43710
C1033       C  0.12958725  0.92539813  0.72708650    -0.05350
C1034       C  0.15797438  0.95839390  0.73287930    -0.32780
C1035       C  0.17087430  0.98934379  0.71493827     0.36470
C1036       C  0.15586479  0.48756018  0.69027923    -0.05710
C1037       C  0.12866425  0.95341916  0.68409653    -0.32680
C1038       C  0.11498878  0.92289213  0.70236516     0.36370
H1039       H  0.16967336  0.96076590  0.75172714     0.16740
O1040       O  0.19905029  0.52052008  0.72166993    -0.60180
H1041       H  0.11693068  0.45133599  0.66525719     0.16760
O1042       O  0.08633544  0.89199972  0.69606087    -0.60280
H1043       H  0.06017692  0.90606126  0.69958161     0.43750
H1044       H  0.18368479  0.04398813  0.73005407     0.43710
C1045       C  0.15795357  0.76292867  0.69368763    -0.05350
C1046       C  0.18384143  0.79587186  0.70308580    -0.32780
C1047       C  0.16994312  0.82687929  0.72025762     0.36470
C1048       C  0.12940704  0.82567961  0.72780688    -0.05710
C1049       C  0.10357434  0.79300102  0.71794580    -0.32680
C1050       C  0.11764618  0.76165058  0.70121802     0.36370
H1051       H  0.21518725  0.79679700  0.69760088     0.16740
O1052       O  0.19664994  0.85610515  0.73080763    -0.60180
H1053       H  0.07246522  0.79105426  0.72379239     0.16760
O1054       O  0.09164727  0.73020742  0.69208565    -0.60280
H1055       H  0.09336305  0.70487059  0.70404493     0.43750
H1056       H  0.20382882  0.87746342  0.71726532     0.43710
C1057       C  0.35567160  0.92501420  0.72737347    -0.05350
C1058       C  0.38582464  0.95443475  0.71887721    -0.32780
C1059       C  0.37876750  0.98321534  0.69861446     0.36470
C1060       C  0.34126844  0.48264146  0.68644130    -0.05710
C1061       C  0.31137121  0.45254011  0.69448471    -0.32680
C1062       C  0.31817713  0.92421295  0.71501194     0.36370
H1063       H  0.41463981  0.95578704  0.72841714     0.16740
O1064       O  0.40818187  0.51281593  0.69137575    -0.60180
H1065       H  0.28198622  0.45257803  0.68560371     0.16760
O1066       O  0.28749776  0.89740399  0.72351470    -0.60280
H1067       H  0.27280962  0.91543937  0.73572687     0.43750
H1068       H  0.42379518  0.99730018  0.67851116     0.43710
C1069       C  0.34512286  0.75893887  0.69393544    -0.05350
C1070       C  0.31820564  0.76121011  0.71387334    -0.32780
C1071       C  0.32151255  0.79501961  0.73111921     0.36470
C1072       C  0.35258506  0.82686255  0.72894169    -0.05710
C1073       C  0.37827931  0.82612157  0.70825309    -0.32680
C1074       C  0.37448502  0.79240946  0.69067277     0.36370
H1075       H  0.29413628  0.73697135  0.71597174     0.16740
O1076       O  0.29526412  0.79564146  0.75076257    -0.60180
H1077       H  0.40259626  0.85012735  0.70652478     0.16760
O1078       O  0.40002047  0.79187026  0.67068479    -0.60280
H1079       H  0.42327510  0.77390095  0.67635411     0.43750
H1080       H  0.27194994  0.81305106  0.74465071     0.43710
C1081       C  0.15345834  0.00930219  0.30974871    -0.05350
C1082       C  0.17433758  0.51028004  0.28707740    -0.32780
C1083       C  0.16510178  0.54142093  0.26837522     0.36470
C1084       C  0.13435969  0.57250637  0.27194384    -0.05710
C1085       C  0.11415586  0.57256499  0.29491869    -0.32680
C1086       C  0.12392175  0.54157505  0.31388670     0.36370
H1087       H  0.19809922  0.98677540  0.28377836     0.16740
O1088       O  0.18661191  0.54157568  0.24660888    -0.60180
H1089       H  0.08989961  0.59561436  0.29781652     0.16760
O1090       O  0.10293746  0.04151548  0.33582582    -0.60280
H1091       H  0.11587060  0.56493727  0.34595975     0.43750
H1092       H  0.17605083  0.51603401  0.23707802     0.43710
C1093       C  0.15286007  0.73186500  0.30975734    -0.05350
C1094       C  0.18012004  0.69960582  0.30208788    -0.32780
C1095       C  0.16977528  0.66993154  0.28318125     0.36470
C1096       C  0.13113766  0.67149520  0.27226375    -0.05710
C1097       C  0.10359465  0.70311464  0.28058785    -0.32680
C1098       C  0.11445914  0.73358561  0.29888161     0.36370
H1099       H  0.21014733  0.69862896  0.31005509     0.16740
O1100       O  0.19853708  0.64229495  0.27406144    -0.60180
H1101       H  0.07390859  0.70513722  0.27219930     0.16760
O1102       O  0.08734783  0.76483263  0.30606180    -0.60280
H1103       H  0.09148870  0.79027877  0.29438890     0.43750
H1104       H  0.20521124  0.62163519  0.28802313     0.43710
C1105       C  0.35399878  0.57180811  0.27211070    -0.05350
C1106       C  0.38278710  0.54030935  0.27954304    -0.32780
C1107       C  0.37506244  0.51055256  0.29917138     0.36470
C1108       C  0.33842556  0.01244143  0.31186012    -0.05710
C1109       C  0.31006382  0.04473501  0.30508294    -0.32680
C1110       C  0.31737939  0.57395128  0.28507324     0.36370
H1111       H  0.41094883  0.53800035  0.26957797     0.16740
O1112       O  0.40290377  0.97889376  0.30532114    -0.60180
H1113       H  0.28134830  0.04582668  0.31453199     0.16760
O1114       O  0.28788413  0.60279226  0.27757777    -0.60280
H1115       H  0.27010771  0.58557736  0.26632346     0.43750
H1116       H  0.42021604  0.49257658  0.31826962     0.43710
C1117       C  0.33745483  0.73634350  0.30616902    -0.05350
C1118       C  0.36739099  0.70439582  0.31020456    -0.32780
C1119       C  0.37512546  0.67227100  0.29216335     0.36470
C1120       C  0.35176262  0.67097346  0.27014600    -0.05710
C1121       C  0.32084846  0.70183628  0.26673000    -0.32680
C1122       C  0.31350076  0.73410500  0.28441512     0.36370
H1123       H  0.38553748  0.70516381  0.32704497     0.16740
O1124       O  0.40627501  0.64339148  0.29585509    -0.60180
H1125       H  0.30272053  0.70147976  0.24987789     0.16760
O1126       O  0.28269387  0.76324051  0.28013682    -0.60280
H1127       H  0.25910595  0.75006838  0.28884571     0.43750
H1128       H  0.43020731  0.65856551  0.28863120     0.43710
C1129       C  0.05017893  0.75038273  0.52501965    -0.05350
C1130       C  0.05591412  0.70851652  0.53588181    -0.32780
C1131       C  0.08768297  0.70154618  0.55260364     0.36470
C1132       C  0.11379525  0.73685719  0.55874419    -0.05710
C1133       C  0.10516427  0.77974444  0.55016389    -0.32680
C1134       C  0.07336438  0.78668295  0.53333580     0.36370
H1135       H  0.03773072  0.68054126  0.52998061     0.16740
O1136       O  0.09434468  0.65968860  0.56200280    -0.60180
H1137       H  0.12507225  0.80711391  0.55473825     0.16760
O1138       O  0.06710184  0.82839308  0.52366777    -0.60280
H1139       H  0.05022825  0.84339905  0.53609911     0.43750
H1140       H  0.10161265  0.64179967  0.54742481     0.43710
C1141       C  0.46323338  0.74275605  0.52829209    -0.05350
C1142       C  0.44762077  0.69991501  0.53030568    -0.32780
C1143       C  0.41420373  0.69113793  0.54511440     0.36470
C1144       C  0.39551749  0.72538011  0.55819129    -0.05710
C1145       C  0.41494806  0.76681854  0.55928179    -0.32440
C1146       C  0.44921519  0.77547902  0.54457915     0.36370
H1147       H  0.45851766  0.67420209  0.51823924     0.16740
O1148       O  0.39744785  0.64980006  0.54447433    -0.60180
H1149       H  0.40192468  0.79332751  0.56986012     0.16760
O1150       O  0.46614244  0.81707460  0.54433317    -0.60280
H1151       H  0.48604177  0.81665986  0.55817855     0.43750
H1152       H  0.37995404  0.65136243  0.52952420     0.43710
C1153       C  0.04569984  0.75886873  0.47846157    -0.05350
C1154       C  0.05418573  0.80110079  0.46861275    -0.32780
C1155       C  0.08572468  0.80725051  0.45172037     0.36470
C1156       C  0.10906515  0.77083692  0.44442747    -0.05710
C1157       C  0.09714280  0.72800649  0.45168722    -0.32680
C1158       C  0.06586958  0.72188214  0.46891952     0.36370
H1159       H  0.03879689  0.82977114  0.47568074     0.16740
O1160       O  0.09576170  0.84948213  0.44407761    -0.60180
H1161       H  0.11456728  0.69972828  0.44606655     0.16760
O1162       O  0.05682929  0.67993061  0.47758528    -0.60280
H1163       H  0.07988903  0.67115833  0.48834103     0.43750
H1164       H  0.08016362  0.85466813  0.42850799     0.43710
C1165       C  0.45601780  0.76452685  0.48332187    -0.05350
C1166       C  0.43003945  0.79954877  0.48715708    -0.32780
C1167       C  0.39353441  0.80194103  0.47483494     0.36470
C1168       C  0.38476739  0.77385597  0.45450293    -0.05710
C1169       C  0.41268196  0.74079673  0.44878371    -0.32680
C1170       C  0.44741648  0.73479730  0.46382325     0.36370
H1171       H  0.43589337  0.82291940  0.50183483     0.16740
O1172       O  0.36622548  0.83147652  0.48372269    -0.60180
H1173       H  0.40658697  0.71831729  0.43365582     0.16760
O1174       O  0.47165646  0.69911863  0.45994261    -0.60280
H1175       H  0.45941539  0.67440641  0.46977365     0.43750
H1176       H  0.35141360  0.81511725  0.49704595     0.43710
C1177       C  0.03971417  0.52120320  0.51870894    -0.05350
C1178       C  0.06451454  0.55544196  0.50979892    -0.32780
C1179       C  0.10150072  0.56427755  0.52090276     0.36470
C1180       C  0.11228167  0.54365039  0.54390973    -0.05710
C1181       C  0.08546118  0.51227300  0.55435062    -0.32680
C1182       C  0.04981882  0.50020718  0.54160082     0.36370
H1183       H  0.05799704  0.07104099  0.49189105     0.16740
O1184       O  0.12788161  0.09057910  0.50770204    -0.60180
H1185       H  0.09291680  0.49569396  0.57181460     0.16760
O1186       O  0.02708404  0.46544420  0.55053008    -0.60280
H1187       H  0.01276381  0.47726708  0.56513581     0.43750
H1188       H  0.14389525  0.06983453  0.49767257     0.43710
C1189       C  0.37496705  0.53226796  0.54083475    -0.05350
C1190       C  0.39606258  0.49370126  0.54763717    -0.32780
C1191       C  0.43152382  0.48249088  0.53471421     0.36470
C1192       C  0.44910058  0.51338640  0.51773224    -0.05710
C1193       C  0.43062560  0.55398286  0.51402052    -0.32680
C1194       C  0.39123175  0.55929489  0.52152591     0.36370
H1195       H  0.38357331  0.47085172  0.56138805     0.16740
O1196       O  0.44656238  0.94034355  0.53689600    -0.60180
H1197       H  0.44357172  0.57828785  0.50139370     0.16760
O1198       O  0.36767210  0.58665273  0.50715272    -0.60280
H1199       H  0.35544770  0.56731629  0.49431664     0.43750
H1200       H  0.45055878  0.93457700  0.55499890     0.43710
C1201       C  0.11409725  0.95651060  0.45589144    -0.05350
C1202       C  0.08755990  0.98741778  0.44513817    -0.32780
C1203       C  0.05178961  0.99852122  0.45737194     0.36470
C1204       C  0.04163874  0.97722637  0.48013517    -0.05710
C1205       C  0.06605962  0.94359150  0.48942661    -0.32680
C1206       C  0.10275027  0.93479803  0.47852870     0.36370
H1207       H  0.09539204  0.00448930  0.42788939     0.16740
O1208       O  0.02915507  0.03289613  0.44823608    -0.60180
H1209       H  0.05914585  0.92785417  0.50723985     0.16760
O1210       O  0.12876985  0.90874016  0.49201649    -0.60280
H1211       H  0.11731011  0.87828516  0.49146251     0.43750
H1212       H  0.01484922  0.02087626  0.43349832     0.43710
C1213       C  0.38912425  0.96257608  0.44305457    -0.05350
C1214       C  0.40166249  0.00677473  0.44376620    -0.32780
C1215       C  0.43479968  0.01878844  0.45866503     0.36470
C1216       C  0.45389229  0.98629864  0.47390090    -0.05710
C1217       C  0.44535238  0.94162308  0.46984453    -0.32680
C1218       C  0.41429117  0.92974082  0.45358372     0.36370
H1219       H  0.38435000  0.53219882  0.43421953     0.16740
O1220       O  0.44837169  0.56198118  0.45840020    -0.60180
H1221       H  0.46114159  0.91609982  0.48033128     0.16760
O1222       O  0.40748003  0.88584518  0.44899564    -0.60280
H1223       H  0.42210354  0.87995392  0.43334674     0.43750
H1224       H  0.42433248  0.58106888  0.45968866     0.43710
C1225       C  0.51595906  0.99829955  0.49900550     0.00680
C1226       C  0.97543178  0.49883940  0.49721656     0.00680
C1227       C  0.98378198  0.25429501  0.50445228     0.00680
C1228       C  0.52425974  0.25471791  0.50257695     0.00680
C1229       C  0.84769881  0.45086503  0.43536677     0.42570
N1230       N  0.79171874  0.44506710  0.41552605     0.01460
C1231       C  0.67100207  0.25965241  0.41336403    -0.06420
H1232       H  0.84099761  0.23576597  0.40556292     0.06950
C1233       C  0.81423557  0.31458127  0.31992154    -0.06770
Co1234     Co  0.74918763  0.36195984  0.43132522     0.74180
N1235       N  0.79588349  0.28597538  0.41213008    -0.25950
Co1236     Co  0.75072296  0.28607940  0.38409247     0.74070
C1237       C  0.82950576  0.26999970  0.32526733     0.42670
N1238       N  0.78906436  0.42506036  0.34265702     0.01080
N1239       N  0.79337256  0.29156818  0.35595273     0.01180
N1240       N  0.67369559  0.31088770  0.44351917    -0.46790
H1241       H  0.83272868  0.39152243  0.46060760     0.06940
N1242       N  0.79278565  0.31521991  0.42988360     0.01470
N1243       N  0.70698699  0.28784278  0.35617354     0.01210
C1244       C  0.66586588  0.26491267  0.32804827     0.42810
N1245       N  0.78730034  0.45422293  0.36068878    -0.25400
C1246       C  0.67782596  0.40894345  0.45029065    -0.06320
N1247       N  0.82517961  0.46958791  0.41692360    -0.46510
N1248       N  0.68490046  0.25335215  0.34939774    -0.46730
C1249       C  0.65283194  0.44617575  0.44362113     0.42580
N1250       N  0.70608964  0.31269354  0.42949225     0.01450
N1251       N  0.70145856  0.45080749  0.36090097    -0.25420
N1252       N  0.79184216  0.41172930  0.43169709    -0.25920
N1253       N  0.70209300  0.42215460  0.34250173     0.01090
H1254       H  0.67607488  0.51581859  0.36406392     0.06980
H1255       H  0.67518324  0.32832261  0.30433132     0.07020
N1256       N  0.70556961  0.28343608  0.41150871    -0.25970
N1257       N  0.79151148  0.32467807  0.33953883    -0.25580
N1258       N  0.70156049  0.44172657  0.41734672     0.01460
C1259       C  0.84664568  0.28067319  0.44021800     0.42860
C1260       C  0.81091633  0.48891711  0.35486707    -0.06830
N1261       N  0.70509362  0.32116098  0.33991912    -0.25580
H1262       H  0.81473241  0.33298999  0.30244592     0.07000
N1263       N  0.82151389  0.31272771  0.44662085    -0.46800
H1264       H  0.81241867  0.51964922  0.36495469     0.06990
C1265       C  0.66417064  0.47525358  0.32889465     0.42690
C1266       C  0.82489932  0.41400969  0.44566820    -0.06330
Co1267     Co  0.74514228  0.44904988  0.38889395     0.73820
N1268       N  0.81225103  0.43897210  0.32407785    -0.46520
C1269       C  0.64985471  0.27878157  0.43455961     0.42960
N1270       N  0.66922575  0.46554801  0.42277374    -0.46510
Co1271     Co  0.74691575  0.37337100  0.34093577     0.73890
C1272       C  0.67952911  0.30985751  0.32157873    -0.06830
C1273       C  0.82968937  0.26216869  0.41689758    -0.06400
N1274       N  0.70595486  0.40837979  0.43309911    -0.25920
N1275       N  0.81510901  0.25816434  0.34792378    -0.46690
H1276       H  0.66066647  0.23478255  0.40046040     0.06960
C1277       C  0.67779315  0.48488946  0.35422652    -0.06810
Cl1278     Cl  0.74793118  0.36763876  0.38613525    -0.49810
C1279       C  0.82776813  0.47868701  0.33066091     0.42720
H1280       H  0.67588870  0.38455169  0.46505552     0.06930
N1281       N  0.68092888  0.43612637  0.32294983    -0.46520
C1282       C  0.83730081  0.04588675  0.55358390     0.42570
N1283       N  0.79078451  0.05503474  0.58106361     0.01460
C1284       C  0.67586054  0.24319367  0.59030545    -0.06420
H1285       H  0.84567841  0.25972226  0.60300627     0.06950
C1286       C  0.82191671  0.18063711  0.68062508    -0.06770
Co1287     Co  0.74982820  0.14077196  0.56953608     0.74180
N1288       N  0.79878453  0.21423453  0.59103223    -0.25950
Co1289     Co  0.75469335  0.21239829  0.61857342     0.74070
C1290       C  0.83828988  0.22503587  0.67502435     0.42670
N1291       N  0.79350965  0.07127204  0.65604182     0.01080
N1292       N  0.79867891  0.20476815  0.64547127     0.01180
N1293       N  0.67628533  0.19459065  0.55872500    -0.46790
H1294       H  0.82007880  0.11192091  0.53405803     0.06940
N1295       N  0.79633150  0.18669113  0.57231744     0.01470
N1296       N  0.71229088  0.20900147  0.64678997     0.01210
C1297       C  0.67317115  0.23062299  0.67576937     0.42810
N1298       N  0.79080506  0.04300629  0.63748094    -0.25400
C1299       C  0.67478681  0.09490690  0.55093799    -0.06320
N1300       N  0.81967037  0.02727033  0.57424570    -0.46510
N1301       N  0.69107900  0.24310961  0.65430480    -0.46730
C1302       C  0.65067104  0.05591012  0.55678319     0.42580
N1303       N  0.70847895  0.19043104  0.57295436     0.01450
N1304       N  0.70512178  0.04600464  0.63879887    -0.25420
N1305       N  0.78971912  0.09039199  0.56642166    -0.25920
N1306       N  0.70672838  0.07427521  0.65740861     0.01090
H1307       H  0.67843671  0.98091380  0.63551314     0.06980
H1308       H  0.68282422  0.16619855  0.69855995     0.07020
N1309       N  0.70917131  0.21802394  0.59170307    -0.25970
N1310       N  0.79734992  0.17120048  0.66150639    -0.25580
N1311       N  0.70124872  0.05950939  0.58224510     0.01460
C1312       C  0.85397762  0.21851333  0.56760681     0.42860
C1313       C  0.81350468  0.00767529  0.64310253    -0.06830
N1314       N  0.71095407  0.17494107  0.66258382    -0.25580
H1315       H  0.82328926  0.16200561  0.69800999     0.07000
N1316       N  0.82841084  0.18832659  0.55797308    -0.46800
H1317       H  0.81372234  0.97714137  0.63281506     0.06990
C1318       C  0.66896621  0.02079304  0.67114022     0.42690
C1319       C  0.81676960  0.08732697  0.54863703    -0.06330
Co1320     Co  0.74687278  0.04970796  0.60968167     0.73820
N1321       N  0.81665447  0.05636068  0.67444806    -0.46520
C1322       C  0.65412517  0.22683529  0.56840919     0.42960
N1323       N  0.66878455  0.03514308  0.57662146    -0.46510
Co1324     Co  0.75208165  0.12272224  0.65956937     0.73890
C1325       C  0.68668483  0.18547729  0.68154727    -0.06830
C1326       C  0.83416477  0.23645941  0.58953450    -0.06400
N1327       N  0.70450120  0.09461371  0.56745638    -0.25920
N1328       N  0.82234543  0.23740157  0.65291820    -0.46690
H1329       H  0.66687733  0.26756462  0.60369324     0.06960
C1330       C  0.68139650  0.01154100  0.64559615    -0.06810
Cl1331     Cl  0.75077635  0.13120913  0.61447855    -0.49810
C1332       C  0.83109530  0.01674679  0.66757123     0.42720
H1333       H  0.67124677  0.12035980  0.53682774     0.06930
N1334       N  0.68601300  0.06007820  0.67699549    -0.46520
C1335       C  0.75440913  0.49697978  0.00169438     0.00680
C1336       C  0.71363767  0.50031355  0.00229134     0.00680
C1337       C  0.75441317  0.25094233  0.99722827     0.00680
C1338       C  0.71351337  0.25166030  0.99720135     0.00680
C1339       C  0.88851740  0.03986376  0.94041769     0.42570
N1340       N  0.94063874  0.04663784  0.91691166     0.01460
C1341       C  0.56308943  0.23276123  0.90899829    -0.06420
H1342       H  0.89430351  0.25215906  0.90055175     0.06950
C1343       C  0.90923886  0.18027947  0.82163127    -0.06770
Co1344     Co  0.98765598  0.12813311  0.93025311     0.74180
N1345       N  0.94032667  0.20504634  0.91083554    -0.25950
Co1346     Co  0.98239932  0.20506564  0.88215734     0.74070
C1347       C  0.89447765  0.22427065  0.82812332     0.42670
N1348       N  0.93581487  0.06920994  0.84308147     0.01080
N1349       N  0.93650365  0.20138798  0.85602118     0.01180
N1350       N  0.56553501  0.17991342  0.93932624    -0.46790
H1351       H  0.90826519  0.09912963  0.96400066     0.06940
N1352       N  0.94356521  0.17624959  0.92938207     0.01470
N1353       N  0.52299520  0.20327039  0.85300638     0.01210
C1354       C  0.56146764  0.22678760  0.82359251     0.42810
N1355       N  0.93821744  0.03951912  0.86136759    -0.25400
C1356       C  0.56199521  0.07652969  0.94576328    -0.06320
N1357       N  0.90741391  0.02227946  0.92053481    -0.46510
N1358       N  0.54538486  0.23741723  0.84563592    -0.46730
C1359       C  0.58319359  0.03770200  0.93767753     0.42580
N1360       N  0.53193628  0.17684235  0.92609730     0.01450
N1361       N  0.52415318  0.03995163  0.85852449    -0.25420
N1362       N  0.94382963  0.07919941  0.93293763    -0.25920
N1363       N  0.52261502  0.06938451  0.83998198     0.01090
H1364       H  0.54974113  0.97479060  0.86171547     0.06980
H1365       H  0.54736699  0.16557145  0.79987909     0.07020
N1366       N  0.52982584  0.20690537  0.90803439    -0.25970
N1367       N  0.93549945  0.16923125  0.83964539    -0.25580
N1368       N  0.53055085  0.04659127  0.91477723     0.01460
C1369       C  0.88747009  0.20879094  0.93629239     0.42860
C1370       C  0.91374967  0.00539588  0.85611262    -0.06830
N1371       N  0.52191955  0.17101004  0.83662315    -0.25580
H1372       H  0.90547607  0.16288977  0.80427498     0.07000
N1373       N  0.91299439  0.17762560  0.94487191    -0.46800
H1374       H  0.91287671  0.97412934  0.86625895     0.06990
C1375       C  0.55924884  0.01655122  0.82594254     0.42690
C1376       C  0.91328977  0.07667604  0.94887022    -0.06330
Co1377     Co  0.98355369  0.04219506  0.88817775     0.73820
N1378       N  0.91136804  0.05623930  0.82498539    -0.46520
C1379       C  0.58691378  0.21406880  0.92956258     0.42960
N1380       N  0.56212659  0.02022804  0.91833403    -0.46510
Co1381     Co  0.97904920  0.11962454  0.83958448     0.73890
C1382       C  0.54542518  0.18296309  0.81730407    -0.06830
C1383       C  0.90580644  0.22761728  0.91356608    -0.06400
N1384       N  0.53055160  0.07976084  0.93048314    -0.25920
N1385       N  0.91302024  0.23487534  0.84964620    -0.46690
H1386       H  0.57060346  0.25948396  0.89612376     0.06960
C1387       C  0.54707839  0.00588473  0.85155891    -0.06810
Cl1388     Cl  0.98335620  0.12364904  0.88491281    -0.49810
C1389       C  0.89566705  0.01650371  0.83196109     0.42720
H1390       H  0.56926086  0.09900271  0.96067406     0.06930
N1391       N  0.54240048  0.05608345  0.82009203    -0.46520
C1392       C  0.61441201  0.35279408  0.74887592     0.00680
C1393       C  0.61269459  0.39819445  0.74821230     0.00680
C1394       C  0.86309177  0.35368766  0.75103601     0.00680
C1395       C  0.86304169  0.39882778  0.75070215     0.00680
C1396       C  0.61989052  0.09972814  0.25013411     0.00680
C1397       C  0.62012714  0.14515605  0.24986018     0.00680
C1398       C  0.86144642  0.09799039  0.24889752     0.00680
C1399       C  0.86246268  0.14316139  0.24843580     0.00680
C1400       C  0.89006171  0.45958162  0.06123867     0.42570
N1401       N  0.94213487  0.45268076  0.08478929     0.01460
C1402       C  0.56458196  0.26831852  0.08497489    -0.06420
H1403       H  0.89616221  0.24570900  0.09508173     0.06950
C1404       C  0.91468013  0.31316006  0.17693983    -0.06770
Co1405     Co  0.98943660  0.37426143  0.06900213     0.74180
N1406       N  0.94210500  0.29487325  0.08650540    -0.25950
Co1407     Co  0.98563605  0.29294107  0.11510346     0.74070
C1408       C  0.90057657  0.26874490  0.17045251     0.42670
N1409       N  0.94013962  0.42539000  0.15834916     0.01080
N1410       N  0.94094515  0.29353882  0.14214921     0.01180
N1411       N  0.56424805  0.32373658  0.05619316    -0.46790
H1412       H  0.91096932  0.40422214  0.03565145     0.06940
N1413       N  0.94507094  0.32532170  0.06872067     0.01470
N1414       N  0.52735674  0.29333598  0.14422580     0.01210
C1415       C  0.56593025  0.26857512  0.17348867     0.42810
N1416       N  0.94111969  0.45562009  0.14030658    -0.25400
C1417       C  0.56557238  0.42932602  0.05663593    -0.06320
N1418       N  0.90841294  0.47576841  0.08189358    -0.46510
N1419       N  0.54943381  0.25893015  0.15117564    -0.46730
C1420       C  0.58553219  0.46805756  0.06679645     0.42580
N1421       N  0.53289150  0.32589483  0.07109377     0.01450
N1422       N  0.52714887  0.45707396  0.14239201    -0.25420
N1423       N  0.94591374  0.42223143  0.06766350    -0.25920
N1424       N  0.52704217  0.42626345  0.16018276     0.01090
H1425       H  0.55335591  0.52250855  0.13977537     0.06980
H1426       H  0.55273856  0.32839851  0.19808755     0.07020
N1427       N  0.53205700  0.29414738  0.08827466    -0.25970
N1428       N  0.94022384  0.32519262  0.15885980    -0.25580
N1429       N  0.53152887  0.45540323  0.08716878     0.01460
C1430       C  0.88886423  0.29217675  0.06055186     0.42860
C1431       C  0.91710852  0.48909819  0.14625110    -0.06830
N1432       N  0.52674455  0.32464273  0.16122372    -0.25580
H1433       H  0.91142144  0.33019335  0.19439970     0.07000
N1434       N  0.91439075  0.32455808  0.05304150    -0.46800
H1435       H  0.91586549  0.52069010  0.13646580     0.06990
C1436       C  0.56502312  0.47850801  0.17432080     0.42690
C1437       C  0.91558246  0.42527429  0.05154093    -0.06330
Co1438     Co  0.98537503  0.45599221  0.11338827     0.73820
N1439       N  0.91730985  0.43767849  0.17717359    -0.46520
C1440       C  0.58607188  0.28864471  0.06369025     0.42960
N1441       N  0.56296605  0.48287013  0.08572351    -0.46510
Co1442     Co  0.98363155  0.37537837  0.15989502     0.73890
C1443       C  0.55055927  0.31200138  0.18033592    -0.06830
C1444       C  0.90744960  0.27187283  0.08294601    -0.06400
N1445       N  0.53278900  0.42369159  0.07055813    -0.25920
N1446       N  0.91832952  0.25895231  0.14867363    -0.46690
H1447       H  0.57280013  0.23998312  0.09644578     0.06960
C1448       C  0.55095106  0.49080930  0.14938689    -0.06810
Cl1449     Cl  0.98617185  0.37460952  0.11448122    -0.49810
C1450       C  0.90105309  0.47721269  0.17068774     0.42720
H1451       H  0.57443171  0.40870939  0.04138978     0.06930
N1452       N  0.54856217  0.43835479  0.17983805    -0.46520
C1453       C  0.87016036  0.07125024  0.22645681    -0.05350
C1454       C  0.90889137  0.07161078  0.21619269    -0.32780
C1455       C  0.91900796  0.04147501  0.19768478     0.36470
C1456       C  0.89029347  0.51023571  0.18936662    -0.05710
C1457       C  0.85144535  0.51038011  0.19921957    -0.32680
C1458       C  0.84128198  0.04055562  0.21768260     0.36370
H1459       H  0.93173370  0.09408007  0.22324722     0.16740
O1460       O  0.95764186  0.04113597  0.18880179    -0.60180
H1461       H  0.82909471  0.48672898  0.19280148     0.16760
O1462       O  0.80298753  0.03990498  0.22710441    -0.60280
H1463       H  0.80235215  0.51476868  0.23925165     0.43750
H1464       H  0.95849951  0.06452789  0.17560722     0.43710
C1465       C  0.87492726  0.16910278  0.22603258    -0.05350
C1466       C  0.90874281  0.19674462  0.22834826    -0.32780
C1467       C  0.91732730  0.22909580  0.21030964     0.36470
C1468       C  0.89210427  0.23386519  0.18923559    -0.05710
C1469       C  0.85962144  0.20441597  0.18603212    -0.32680
C1470       C  0.85054418  0.17243398  0.20451831     0.36370
H1471       H  0.92776129  0.19436485  0.24479124     0.16740
O1472       O  0.95085325  0.25546630  0.21326864    -0.60180
H1473       H  0.84050763  0.20729053  0.16966091     0.16760
O1474       O  0.81716466  0.14582068  0.20185498    -0.60280
H1475       H  0.79458631  0.16297263  0.20871607     0.43750
H1476       H  0.94388062  0.27659116  0.22651835     0.43710
C1477       C  0.57849464  0.51052835  0.19331945    -0.05350
C1478       C  0.60754913  0.54307463  0.18728261    -0.32780
C1479       C  0.62064192  0.07371947  0.20512947     0.36470
C1480       C  0.60349966  0.07300367  0.22912859    -0.05710
C1481       C  0.57326971  0.04161449  0.23466750    -0.32680
C1482       C  0.56102453  0.01039250  0.21718653     0.36370
H1483       H  0.62094265  0.54391882  0.16890511     0.16740
O1484       O  0.65095220  0.10312590  0.19920072    -0.60180
H1485       H  0.55968986  0.04062012  0.25299949     0.16760
O1486       O  0.53095562  0.98084191  0.22340846    -0.60280
H1487       H  0.04447918  0.95674382  0.23294281     0.43750
H1488       H  0.67626513  0.58658460  0.20195733     0.43710
C1489       C  0.60752156  0.17234633  0.22759736    -0.05350
C1490       C  0.56798561  0.16983888  0.21828343    -0.32780
C1491       C  0.55452425  0.20021190  0.20001654     0.36470
C1492       C  0.58040065  0.23426175  0.19122693    -0.05710
C1493       C  0.62002520  0.23622861  0.20006811    -0.32680
C1494       C  0.63372261  0.20551549  0.21799778     0.36370
H1495       H  0.54710499  0.14540044  0.22584792     0.16740
O1496       O  0.51535506  0.19795364  0.19191411    -0.60180
H1497       H  0.64031116  0.26195282  0.19324722     0.16760
O1498       O  0.67290137  0.20808503  0.22611449    -0.60280
H1499       H  0.67382496  0.23334662  0.23772113     0.43750
H1500       H  0.51535181  0.17637083  0.17816574     0.43710
C1501       C  0.57222847  0.98432380  0.80688251    -0.05350
C1502       C  0.55554714  0.98688594  0.78279829    -0.32780
C1503       C  0.56695913  0.45743273  0.76423853     0.36470
C1504       C  0.59596017  0.42458567  0.76930089    -0.05710
C1505       C  0.61225607  0.42142682  0.79354782    -0.32680
C1506       C  0.60014073  0.45052207  0.81234010     0.36370
H1507       H  0.53328625  0.01179808  0.77827112     0.16740
O1508       O  0.54927179  0.46076580  0.74110814    -0.60180
H1509       H  0.63536344  0.39731796  0.79773629     0.16760
O1510       O  0.61743118  0.44721129  0.83556490    -0.60280
H1511       H  0.60349797  0.42187129  0.84390626     0.43750
H1512       H  0.56221811  0.98686864  0.73289436     0.43710
C1513       C  0.57526463  0.26089019  0.80566227    -0.05350
C1514       C  0.54727421  0.28974971  0.79448772    -0.32780
C1515       C  0.55976756  0.32196239  0.77697875     0.36470
C1516       C  0.60076963  0.32581697  0.77075263    -0.05710
C1517       C  0.62874709  0.29777956  0.78262823    -0.32680
C1518       C  0.61624153  0.26565770  0.80007669     0.36370
H1519       H  0.51558518  0.28655943  0.79893229     0.16740
O1520       O  0.53164314  0.34836150  0.76546416    -0.60180
H1521       H  0.66031282  0.30001254  0.77774599     0.16760
O1522       O  0.64411979  0.23831812  0.81109458    -0.60280
H1523       H  0.65245906  0.25351397  0.82657944     0.43750
H1524       H  0.52536767  0.33376962  0.74945542     0.43710
C1525       C  0.88538275  0.98324888  0.81319486    -0.05350
C1526       C  0.91498763  0.45334863  0.80583251    -0.32780
C1527       C  0.90795790  0.42458778  0.78599487     0.36470
C1528       C  0.87054459  0.42507410  0.77354355    -0.05710
C1529       C  0.84074305  0.45455775  0.78127083    -0.32680
C1530       C  0.84813608  0.98386003  0.80078444     0.36370
H1531       H  0.94433139  0.45370184  0.81477128     0.16740
O1532       O  0.93874516  0.39888070  0.77760635    -0.60180
H1533       H  0.81201275  0.45568345  0.77163776     0.16760
O1534       O  0.81896534  0.01315962  0.80747575    -0.60280
H1535       H  0.82329034  0.03963447  0.79658318     0.43750
H1536       H  0.94477784  0.37768570  0.79143131     0.43710
C1537       C  0.88632274  0.25918246  0.80940217    -0.05350
C1538       C  0.91186788  0.26288466  0.78879685    -0.32780
C1539       C  0.90647210  0.29622293  0.77095917     0.36470
C1540       C  0.87473740  0.32652494  0.77325305    -0.05710
C1541       C  0.85023973  0.32434065  0.79452089    -0.32680
C1542       C  0.85611272  0.29091033  0.81269153     0.36370
H1543       H  0.93633627  0.23983371  0.78650028     0.16740
O1544       O  0.93141863  0.29773538  0.75066935    -0.60180
H1545       H  0.82543143  0.34706081  0.79637373     0.16760
O1546       O  0.83167624  0.28880543  0.83320170    -0.60280
H1547       H  0.80870600  0.26954743  0.82829694     0.43750
H1548       H  0.95193564  0.32067822  0.75452625     0.43710
C1549       C  0.69018046  0.25894399  0.02033750    -0.05350
C1550       C  0.68349559  0.30218676  0.02791237    -0.32780
C1551       C  0.65003807  0.31170632  0.04248897     0.36470
C1552       C  0.62500144  0.27743844  0.05197875    -0.05710
C1553       C  0.63499045  0.23338288  0.04709443    -0.32680
C1554       C  0.66687280  0.22406593  0.03089056     0.36370
H1555       H  0.70118711  0.32925632  0.02000833     0.16740
O1556       O  0.64042842  0.35503415  0.04600745    -0.60180
H1557       H  0.61605794  0.20651865  0.05400894     0.16760
O1558       O  0.67291148  0.18115716  0.02384544    -0.60280
H1559       H  0.69632621  0.17089056  0.03384460     0.43750
H1560       H  0.63134551  0.36633014  0.02944800     0.43710
C1561       C  0.78007396  0.26899038  0.01781166    -0.05350
C1562       C  0.78559585  0.24554202  0.04049474    -0.32780
C1563       C  0.82012996  0.25309227  0.05542372     0.36470
C1564       C  0.84947623  0.28456165  0.04769020    -0.05710
C1565       C  0.84171871  0.31012988  0.02612299    -0.32680
C1566       C  0.80777380  0.30268440  0.01137049     0.36370
H1567       H  0.76501466  0.21887522  0.04554683     0.16740
O1568       O  0.82584079  0.22774300  0.07654333    -0.60180
H1569       H  0.86318810  0.33489522  0.01965731     0.16760
O1570       O  0.80282244  0.32704573  0.98970688    -0.60280
H1571       H  0.82711184  0.32183855  0.97952058     0.43750
H1572       H  0.81302333  0.24448161  0.09008498     0.43710
C1573       C  0.62602373  0.22859725  0.93988204    -0.05350
C1574       C  0.63013159  0.27083985  0.94984238    -0.32780
C1575       C  0.66163626  0.28015127  0.96655441     0.36470
C1576       C  0.68867180  0.24636917  0.97404899    -0.05710
C1577       C  0.68729086  0.20591312  0.96154506    -0.32680
C1578       C  0.65687890  0.19771404  0.94390095     0.36370
H1579       H  0.60751022  0.29570763  0.94601513     0.16740
O1580       O  0.66552429  0.32215544  0.97577546    -0.60180
H1581       H  0.70858804  0.18009157  0.96618976     0.16760
O1582       O  0.65698196  0.15917060  0.93084047    -0.60280
H1583       H  0.67295437  0.16593556  0.91566498     0.43750
H1584       H  0.64015745  0.32796155  0.98477667     0.43710
C1585       C  0.77841297  0.23206274  0.97666437    -0.05350
C1586       C  0.78501013  0.25578921  0.95423573    -0.32780
C1587       C  0.81950849  0.24779426  0.93984025     0.36470
C1588       C  0.84762929  0.21577343  0.94800164    -0.05710
C1589       C  0.83833866  0.18952589  0.96905907    -0.32680
C1590       C  0.80413744  0.19710930  0.98311194     0.36370
H1591       H  0.76561875  0.28318567  0.94916676     0.16740
O1592       O  0.82672637  0.27367003  0.91909836    -0.60180
H1593       H  0.85899914  0.16455187  0.97585010     0.16760
O1594       O  0.79757420  0.17259305  0.00452466    -0.60280
H1595       H  0.82176753  0.17686518  0.01518664     0.43750
H1596       H  0.81326643  0.25796284  0.90520263     0.43710
C1597       C  0.62560886  0.48388242  0.05928191    -0.05350
C1598       C  0.65581631  0.45232203  0.05740227    -0.32780
C1599       C  0.68663482  0.45760785  0.03993098     0.36470
C1600       C  0.68965758  0.49723760  0.02582133    -0.05710
C1601       C  0.66317477  0.53203553  0.03129838    -0.32680
C1602       C  0.63075701  0.52526158  0.04754022     0.36370
H1603       H  0.65300682  0.42151642  0.06779349     0.16740
O1604       O  0.70959089  0.42174209  0.03440325    -0.60180
H1605       H  0.66525022  0.06328223  0.02130841     0.16760
O1606       O  0.60190043  0.05718675  0.04939382    -0.60280
H1607       H  0.60965885  0.07441916  0.06428856     0.43750
H1608       H  0.72397287  0.41378128  0.05009062     0.43710
C1609       C  0.77888435  0.48413007  0.02379840    -0.05350
C1610       C  0.79380986  0.51638055  0.04022569    -0.32780
C1611       C  0.82898674  0.50840715  0.05431067     0.36470
C1612       C  0.84839667  0.46737018  0.05244951    -0.05710
C1613       C  0.82953464  0.43348409  0.03895206    -0.32680
C1614       C  0.79580257  0.44183221  0.02428682     0.36370
H1615       H  0.78023411  0.04880727  0.04058879     0.16740
O1616       O  0.84546567  0.04166280  0.06830438    -0.60180
H1617       H  0.84239577  0.40084117  0.03835853     0.16760
O1618       O  0.78179931  0.40972377  0.00854896    -0.60280
H1619       H  0.77227061  0.38508649  0.01951163     0.43750
H1620       H  0.86256183  0.05915940  0.05659102     0.43710
C1621       C  0.68943368  0.00792496  0.97925026    -0.05350
C1622       C  0.66605080  0.97271581  0.96974145    -0.32780
C1623       C  0.63328911  0.98098760  0.95361282     0.36470
C1624       C  0.62315642  0.02493984  0.94754140    -0.05710
C1625       C  0.64862658  0.05926287  0.95545022    -0.32680
C1626       C  0.68159116  0.05130706  0.97098704     0.36370
H1627       H  0.67137090  0.93913097  0.97633856     0.16740
O1628       O  0.60887954  0.94657723  0.94642569    -0.60180
H1629       H  0.64074047  0.09304271  0.95146249     0.16760
O1630       O  0.70391328  0.08640626  0.97967245    -0.60280
H1631       H  0.68478694  0.10675317  0.98767461     0.43750
H1632       H  0.61942600  0.93753249  0.93003118     0.43710
C1633       C  0.77891899  0.00968399  0.97941733    -0.05350
C1634       C  0.79552212  0.97719579  0.96400336    -0.32780
C1635       C  0.82985159  0.98679008  0.94940486     0.36470
C1636       C  0.84750774  0.02938418  0.95001288    -0.05710
C1637       C  0.82751442  0.06266884  0.96287500    -0.32680
C1638       C  0.79474135  0.05287708  0.97812154     0.36370
H1639       H  0.78382266  0.94361805  0.96468287     0.16740
O1640       O  0.84772063  0.95350878  0.93651396    -0.60180
H1641       H  0.83910748  0.09613073  0.96274692     0.16760
O1642       O  0.78104878  0.08477772  0.99375616    -0.60280
H1643       H  0.80295101  0.08910511  0.00614063     0.43750
H1644       H  0.83570421  0.95516437  0.91955790     0.43710
C1645       C  0.62958772  0.42539843  0.72708500    -0.05350
C1646       C  0.65797520  0.45839394  0.73287760    -0.32780
C1647       C  0.67087542  0.48934338  0.71493638     0.36470
C1648       C  0.65586377  0.98756068  0.69028110    -0.05710
C1649       C  0.62866496  0.45341882  0.68409485    -0.32680
C1650       C  0.61498922  0.42289221  0.70236366     0.36370
H1651       H  0.66967427  0.46076608  0.75172540     0.16740
O1652       O  0.69904882  0.02052071  0.72167198    -0.60180
H1653       H  0.61693008  0.95133638  0.66525883     0.16760
O1654       O  0.58633557  0.39200005  0.69605954    -0.60280
H1655       H  0.56017722  0.40606177  0.69958051     0.43750
H1656       H  0.68368662  0.54398756  0.73005216     0.43710
C1657       C  0.65795459  0.26292864  0.69368713    -0.05350
C1658       C  0.68384246  0.29587149  0.70308563    -0.32780
C1659       C  0.66994381  0.32687920  0.72025715     0.36470
C1660       C  0.62940744  0.32568009  0.72780580    -0.05710
C1661       C  0.60357472  0.29300187  0.71794438    -0.32680
C1662       C  0.61764685  0.26165118  0.70121687     0.36370
H1663       H  0.71518852  0.29679613  0.69760119     0.16740
O1664       O  0.69665052  0.35610480  0.73080750    -0.60180
H1665       H  0.57246537  0.29105557  0.72379053     0.16760
O1666       O  0.59164795  0.23020836  0.69208413    -0.60280
H1667       H  0.59336296  0.20487154  0.70404346     0.43750
H1668       H  0.70382979  0.37746316  0.71726531     0.43710
C1669       C  0.85567194  0.42501457  0.72737219    -0.05350
C1670       C  0.88582519  0.45443484  0.71887592    -0.32780
C1671       C  0.87876806  0.48321595  0.69861340     0.36470
C1672       C  0.84126813  0.98263998  0.68644208    -0.05710
C1673       C  0.81137112  0.95253838  0.69448551    -0.32680
C1674       C  0.81817727  0.42421409  0.71501089     0.36370
H1675       H  0.91464052  0.45578655  0.72841570     0.16740
O1676       O  0.90818110  0.01281560  0.69137680    -0.60180
H1677       H  0.78198628  0.95257568  0.68560433     0.16760
O1678       O  0.78749775  0.39740534  0.72351366    -0.60280
H1679       H  0.77280995  0.41544068  0.73572600     0.43750
H1680       H  0.92379553  0.49730055  0.67850988     0.43710
C1681       C  0.84512317  0.25893874  0.69393398    -0.05350
C1682       C  0.81820568  0.26121015  0.71387175    -0.32780
C1683       C  0.82151230  0.29501981  0.73111754     0.36470
C1684       C  0.85258477  0.32686282  0.72894009    -0.05710
C1685       C  0.87827915  0.32612182  0.70825154    -0.32680
C1686       C  0.87448517  0.29240951  0.69067130     0.36370
H1687       H  0.79413642  0.23697128  0.71597016     0.16740
O1688       O  0.79526377  0.29564162  0.75076085    -0.60180
H1689       H  0.90259607  0.35012764  0.70652328     0.16760
O1690       O  0.90002085  0.29187022  0.67068345    -0.60280
H1691       H  0.92327558  0.27390125  0.67635297     0.43750
H1692       H  0.77194977  0.31305154  0.74464902     0.43710
C1693       C  0.65345924  0.50930239  0.30974842    -0.05350
C1694       C  0.67433653  0.01027943  0.28707764    -0.32780
C1695       C  0.66510087  0.04142026  0.26837538     0.36470
C1696       C  0.63435906  0.07250604  0.27194397    -0.05710
C1697       C  0.61415536  0.07256503  0.29491885    -0.32680
C1698       C  0.62392109  0.04157514  0.31388694     0.36370
H1699       H  0.69810048  0.48677626  0.28377812     0.16740
O1700       O  0.68661091  0.04157462  0.24660900    -0.60180
H1701       H  0.58989931  0.09561467  0.29781668     0.16760
O1702       O  0.60293799  0.54151495  0.33582555    -0.60280
H1703       H  0.61587022  0.06493775  0.34595992     0.43750
H1704       H  0.67604950  0.01603304  0.23707820     0.43710
C1705       C  0.65286111  0.23186523  0.30975696    -0.05350
C1706       C  0.68012068  0.19960556  0.30208760    -0.32780
C1707       C  0.66977549  0.16993109  0.28318114     0.36470
C1708       C  0.63113784  0.17149507  0.27226370    -0.05710
C1709       C  0.60359522  0.20311501  0.28058770    -0.32680
C1710       C  0.61446014  0.23358614  0.29888130     0.36370
H1711       H  0.71014801  0.19862844  0.31005474     0.16740
O1712       O  0.69853694  0.14229397  0.27406142    -0.60180
H1713       H  0.57390915  0.20513786  0.27219919     0.16760
O1714       O  0.58734919  0.26483360  0.30606140    -0.60280
H1715       H  0.59149019  0.29027949  0.29438835     0.43750
H1716       H  0.70521085  0.12163428  0.28802318     0.43710
C1717       C  0.85399791  0.07180795  0.27211060    -0.05350
C1718       C  0.88278569  0.04030855  0.27954292    -0.32780
C1719       C  0.87506058  0.01055186  0.29917125     0.36470
C1720       C  0.83842734  0.51244147  0.31186018    -0.05710
C1721       C  0.81006506  0.54473445  0.30508296    -0.32680
C1722       C  0.81737859  0.07395177  0.28507319     0.36370
H1723       H  0.91094736  0.03799900  0.26957783     0.16740
O1724       O  0.90290610  0.47889501  0.30532130    -0.60180
H1725       H  0.78134948  0.54582555  0.31453198     0.16760
O1726       O  0.78788375  0.10279330  0.27757775    -0.60280
H1727       H  0.77010742  0.08557891  0.26632314     0.43750
H1728       H  0.92021399  0.99257502  0.31826941     0.43710
C1729       C  0.83745581  0.23634376  0.30616864    -0.05350
C1730       C  0.86739181  0.20439590  0.31020419    -0.32780
C1731       C  0.87512596  0.17227088  0.29216305     0.36470
C1732       C  0.85176301  0.17097339  0.27014575    -0.05710
C1733       C  0.82084899  0.20183638  0.26672974    -0.32680
C1734       C  0.81350155  0.23410523  0.28441481     0.36370
H1735       H  0.88553839  0.20516388  0.32704456     0.16740
O1736       O  0.90627530  0.14339109  0.29585480    -0.60180
H1737       H  0.80272096  0.20147985  0.24987767     0.16760
O1738       O  0.78269470  0.26324082  0.28013657    -0.60280
H1739       H  0.75910683  0.25006882  0.28884557     0.43750
H1740       H  0.93020774  0.15856498  0.28863099     0.43710
C1741       C  0.55017969  0.25038487  0.52501964    -0.05350
C1742       C  0.55591222  0.20851866  0.53588244    -0.32780
C1743       C  0.58768028  0.20154695  0.55260468     0.36470
C1744       C  0.61379424  0.23685658  0.55874503    -0.05710
C1745       C  0.60516575  0.27974408  0.55016414    -0.32680
C1746       C  0.57336681  0.28668393  0.53333558     0.36370
H1747       H  0.53772745  0.18054434  0.52998140     0.16740
O1748       O  0.59433963  0.15968925  0.56200440    -0.60180
H1749       H  0.62507507  0.30711248  0.55473834     0.16760
O1750       O  0.56710685  0.32839411  0.52366694    -0.60280
H1751       H  0.55022933  0.34339978  0.53609635     0.43750
H1752       H  0.60160914  0.14179984  0.54742689     0.43710
C1753       C  0.96323362  0.24275324  0.52828946    -0.05350
C1754       C  0.94761373  0.19991477  0.53029584    -0.32780
C1755       C  0.91419235  0.19113772  0.54510047     0.36470
C1756       C  0.89551284  0.22537570  0.55818465    -0.05710
C1757       C  0.91495023  0.26680977  0.55928201    -0.32440
C1758       C  0.94921839  0.27547167  0.54458036     0.36370
H1759       H  0.95850683  0.17420602  0.51822526     0.16740
O1760       O  0.89742461  0.14980676  0.54444746    -0.60180
H1761       H  0.90193115  0.29331563  0.56986480     0.16760
O1762       O  0.96614905  0.31706554  0.54433875    -0.60280
H1763       H  0.98605121  0.31664282  0.55818254     0.43750
H1764       H  0.87993406  0.15138859  0.52949606     0.43710
C1765       C  0.54570248  0.25887138  0.47846152    -0.05350
C1766       C  0.55418750  0.30110292  0.46861174    -0.32780
C1767       C  0.58572583  0.30725189  0.45171887     0.36470
C1768       C  0.60906657  0.27083808  0.44442660    -0.05710
C1769       C  0.59714513  0.22800798  0.45168746    -0.32680
C1770       C  0.56587250  0.22188439  0.46892016     0.36370
H1771       H  0.53879839  0.32977349  0.47567924     0.16740
O1772       O  0.59576213  0.34948310  0.44407500    -0.60180
H1773       H  0.61456995  0.19972966  0.44606734     0.16760
O1774       O  0.55683287  0.17993327  0.47758687    -0.60280
H1775       H  0.57989277  0.17116220  0.48834279     0.43750
H1776       H  0.58016352  0.35466772  0.42850544     0.43710
C1777       C  0.95602011  0.26453188  0.48332073    -0.05350
C1778       C  0.93003850  0.29955004  0.48715836    -0.32780
C1779       C  0.89353362  0.30194147  0.47483592     0.36470
C1780       C  0.88476920  0.27385935  0.45450218    -0.05710
C1781       C  0.91268654  0.24080417  0.44878099    -0.32680
C1782       C  0.94742152  0.23480547  0.46382013     0.36370
H1783       H  0.93588988  0.32291727  0.50183831     0.16740
O1784       O  0.86622238  0.33147327  0.48372488    -0.60180
H1785       H  0.90659361  0.21832721  0.43365163     0.16760
O1786       O  0.97166453  0.19913016  0.45993724    -0.60280
H1787       H  0.95942272  0.17441336  0.46976426     0.43750
H1788       H  0.85141067  0.31511041  0.49704687     0.43710
C1789       C  0.53971097  0.02119657  0.51871159    -0.05350
C1790       C  0.56450924  0.05543756  0.50980217    -0.32780
C1791       C  0.60149510  0.06427486  0.52090596     0.36470
C1792       C  0.61227769  0.04364660  0.54391238    -0.05710
C1793       C  0.58545892  0.01226689  0.55435281    -0.32680
C1794       C  0.54981694  0.00019973  0.54160300     0.36370
H1795       H  0.55800341  0.57104470  0.49188750     0.16740
O1796       O  0.62788897  0.59057926  0.50769860    -0.60180
H1797       H  0.59291576  0.99568697  0.57181633     0.16760
O1798       O  0.52708399  0.96543476  0.55053163    -0.60280
H1799       H  0.51276349  0.97725567  0.56513779     0.43750
H1800       H  0.64390208  0.56983289  0.49766998     0.43710
C1801       C  0.87496488  0.03226110  0.54083680    -0.05350
C1802       C  0.89606019  0.99369422  0.54763927    -0.32780
C1803       C  0.93152133  0.98248357  0.53471616     0.36470
C1804       C  0.94909832  0.01337922  0.51773432    -0.05710
C1805       C  0.93062389  0.05397608  0.51402314    -0.32680
C1806       C  0.89122974  0.05928756  0.52152798     0.36370
H1807       H  0.88357073  0.97084476  0.56139013     0.16740
O1808       O  0.94656509  0.44035107  0.53689415    -0.60180
H1809       H  0.94357030  0.07828142  0.50139669     0.16760
O1810       O  0.86766936  0.08664215  0.50715340    -0.60280
H1811       H  0.85544699  0.06730361  0.49431760     0.43750
H1812       H  0.95056080  0.43458439  0.55499710     0.43710
C1813       C  0.61409765  0.45651216  0.45588972    -0.05350
C1814       C  0.58756159  0.48742053  0.44513629    -0.32780
C1815       C  0.55179157  0.49852552  0.45736982     0.36470
C1816       C  0.54163989  0.47723139  0.48013308    -0.05710
C1817       C  0.56605916  0.44359519  0.48942462    -0.32680
C1818       C  0.60274939  0.43479965  0.47852676     0.36370
H1819       H  0.59539465  0.50449187  0.42788761     0.16740
O1820       O  0.52915826  0.53290130  0.44823380    -0.60180
H1821       H  0.55914458  0.42785832  0.50723787     0.16760
O1822       O  0.62876743  0.40873973  0.49201442    -0.60280
H1823       H  0.61730676  0.37828525  0.49145939     0.43750
H1824       H  0.51485166  0.52088168  0.43349626     0.43710
C1825       C  0.88912493  0.46257767  0.44305474    -0.05350
C1826       C  0.90166357  0.50677636  0.44376470    -0.32780
C1827       C  0.93480109  0.51879149  0.45866289     0.36470
C1828       C  0.95389397  0.48630312  0.47389955    -0.05710
C1829       C  0.94535350  0.44162716  0.46984496    -0.32680
C1830       C  0.91429164  0.42974330  0.45358505     0.36370
H1831       H  0.88434882  0.03219809  0.43422177     0.16740
O1832       O  0.94837048  0.06197811  0.45840343    -0.60180
H1833       H  0.96114273  0.41610493  0.48033251     0.16760
O1834       O  0.90747982  0.38584707  0.44899900    -0.60280
H1835       H  0.92210225  0.37995354  0.43335000     0.43750
H1836       H  0.92433132  0.08106591  0.45969182     0.43710
C1837       C  0.51596123  0.49830628  0.49900324     0.00680
C1838       C  0.97542963  0.99883266  0.49721852     0.00680
C1839       C  0.98378019  0.75429180  0.50445347     0.00680
C1840       C  0.52425799  0.75471471  0.50257733     0.00680
C1841       C  0.84769800  0.95086397  0.43536670     0.42570
N1842       N  0.79171760  0.94506640  0.41552632     0.01460
C1843       C  0.67100068  0.75965151  0.41336467    -0.06420
H1844       H  0.84099511  0.73576328  0.40556374     0.06950
C1845       C  0.81423426  0.81458088  0.31992201    -0.06770
Co1846     Co  0.74918664  0.86195892  0.43132565     0.74180
N1847       N  0.79588208  0.78597402  0.41213058    -0.25950
Co1848     Co  0.75072154  0.78607864  0.38409293     0.74070
C1849       C  0.82950451  0.76999931  0.32526775     0.42670
N1850       N  0.78906287  0.92506006  0.34265734     0.01080
N1851       N  0.79337114  0.79156757  0.35595314     0.01180
N1852       N  0.67369442  0.81088667  0.44351986    -0.46790
H1853       H  0.83272813  0.89152132  0.46060740     0.06940
N1854       N  0.79278461  0.81521869  0.42988405     0.01470
N1855       N  0.70698555  0.78784232  0.35617405     0.01210
C1856       C  0.66586443  0.76491236  0.32804876     0.42810
N1857       N  0.78729875  0.95422273  0.36068906    -0.25400
C1858       C  0.67782547  0.90894240  0.45029147    -0.06320
N1859       N  0.82517857  0.96958711  0.41692373    -0.46510
N1860       N  0.68489898  0.75335176  0.34939823    -0.46730
C1861       C  0.65283136  0.94617479  0.44362235     0.42580
N1862       N  0.70608840  0.81269262  0.42949284     0.01450
N1863       N  0.70145704  0.95080699  0.36090149    -0.25420
N1864       N  0.79184121  0.91172842  0.43169726    -0.25920
N1865       N  0.70209155  0.92215414  0.34250223     0.01090
H1866       H  0.67607372  0.01581830  0.36406430     0.06980
H1867       H  0.67518189  0.82832233  0.30433186     0.07020
N1868       N  0.70556821  0.78343522  0.41150925    -0.25970
N1869       N  0.79151009  0.82467755  0.33953930    -0.25580
N1870       N  0.70155930  0.94172582  0.41734742     0.01460
C1871       C  0.84664387  0.78067056  0.44021874     0.42860
C1872       C  0.81091428  0.98891722  0.35486714    -0.06830
N1873       N  0.70509223  0.82116056  0.33991965    -0.25580
H1874       H  0.81473116  0.83298970  0.30244643     0.07000
N1875       N  0.82151261  0.81272575  0.44662147    -0.46800
H1876       H  0.81241640  0.01964943  0.36495468     0.06990
C1877       C  0.66416954  0.97525335  0.32889501     0.42690
C1878       C  0.82489860  0.91400863  0.44566814    -0.06330
Co1879     Co  0.74514089  0.94904933  0.38889442     0.73820
N1880       N  0.81224919  0.93897199  0.32407803    -0.46520
C1881       C  0.64985343  0.77878052  0.43456038     0.42960
N1882       N  0.66922465  0.96554722  0.42277483    -0.46510
Co1883     Co  0.74691434  0.87337053  0.34093624     0.73890
C1884       C  0.67952772  0.80985718  0.32157926    -0.06830
C1885       C  0.82968738  0.76216644  0.41689827    -0.06400
N1886       N  0.70595398  0.90837891  0.43309970    -0.25920
N1887       N  0.81510767  0.75816380  0.34792416    -0.46690
H1888       H  0.66066502  0.73478166  0.40046106     0.06960
C1889       C  0.67779184  0.98488911  0.35422694    -0.06810
Cl1890     Cl  0.74792990  0.86763809  0.38613571    -0.49810
C1891       C  0.82776596  0.97868715  0.33066094     0.42720
H1892       H  0.67588847  0.88455043  0.46505624     0.06930
N1893       N  0.68092766  0.93612605  0.32295025    -0.46520
C1894       C  0.83730314  0.54589280  0.55358229     0.42570
N1895       N  0.79078742  0.55503927  0.58106263     0.01460
C1896       C  0.67586073  0.74319574  0.59030517    -0.06420
H1897       H  0.84567809  0.75972532  0.60301040     0.06950
C1898       C  0.82191557  0.68063787  0.68062584    -0.06770
Co1899     Co  0.74983091  0.64077629  0.56953576     0.74180
N1900       N  0.79878540  0.71423844  0.59103371    -0.25950
Co1901     Co  0.75469297  0.71240081  0.61857400     0.74070
C1902       C  0.83828888  0.72503672  0.67502555     0.42670
N1903       N  0.79350979  0.57127385  0.65604138     0.01080
N1904       N  0.79867768  0.70477029  0.64547234     0.01180
N1905       N  0.67628813  0.69459447  0.55872393    -0.46790
H1906       H  0.82007976  0.61192729  0.53405720     0.06940
N1907       N  0.79633447  0.68669532  0.57231867     0.01470
N1908       N  0.71228956  0.70900255  0.64678994     0.01210
C1909       C  0.67316977  0.73062332  0.67576953     0.42810
N1910       N  0.79080632  0.54300877  0.63748012    -0.25400
C1911       C  0.67479038  0.59491071  0.55093615    -0.06320
N1912       N  0.81967322  0.52727532  0.57424403    -0.46510
N1913       N  0.69107765  0.74311046  0.65430506    -0.46730
C1914       C  0.65067481  0.55591355  0.55678083     0.42580
N1915       N  0.70848117  0.69043493  0.57295381     0.01450
N1916       N  0.70512297  0.54600565  0.63879729    -0.25420
N1917       N  0.78972179  0.59039704  0.56642112    -0.25920
N1918       N  0.70672846  0.57427597  0.65740718     0.01090
H1919       H  0.67843935  0.48091408  0.63551119     0.06980
H1920       H  0.68282307  0.66619840  0.69855962     0.07020
N1921       N  0.70917202  0.71802683  0.59170299    -0.25970
N1922       N  0.79734875  0.67120201  0.66150703    -0.25580
N1923       N  0.70125156  0.55951284  0.58224340     0.01460
C1924       C  0.85398142  0.71851695  0.56761132     0.42860
C1925       C  0.81350618  0.50767791  0.64310164    -0.06830
N1926       N  0.71095281  0.67494174  0.66258352    -0.25580
H1927       H  0.82328838  0.66200555  0.69801047     0.07000
N1928       N  0.82841602  0.68833028  0.55797603    -0.46800
H1929       H  0.81372459  0.47714437  0.63281383     0.06990
C1930       C  0.66896706  0.52079272  0.67113833     0.42690
C1931       C  0.81677161  0.58733289  0.54863610    -0.06330
Co1932     Co  0.74687487  0.54971079  0.60968038     0.73820
N1933       N  0.81665409  0.55636214  0.67444780    -0.46520
C1934       C  0.65412682  0.72683812  0.56840816     0.42960
N1935       N  0.66878777  0.53514634  0.57661922    -0.46510
Co1936     Co  0.75208106  0.62272343  0.65956897     0.73890
C1937       C  0.68668348  0.68547745  0.68154704    -0.06830
C1938       C  0.83416578  0.73646320  0.58953781    -0.06400
N1939       N  0.70450421  0.59461759  0.56745495    -0.25920
N1940       N  0.82234430  0.73740335  0.65291961    -0.46690
H1941       H  0.66687626  0.76756561  0.60369325     0.06960
C1942       C  0.68139825  0.51154126  0.64559431    -0.06810
Cl1943     Cl  0.75077723  0.63121180  0.61447820    -0.49810
C1944       C  0.83109574  0.51674878  0.66757070     0.42720
H1945       H  0.67125031  0.62036379  0.53682598     0.06930
N1946       N  0.68601285  0.56007826  0.67699381    -0.46520
C1947       C  0.75440750  0.99698068  0.00169445     0.00680
C1948       C  0.71363599  0.00031341  0.00229118     0.00680
C1949       C  0.75441277  0.75093958  0.99722919     0.00680
C1950       C  0.71351299  0.75165862  0.99720200     0.00680
C1951       C  0.88851864  0.53985886  0.94041703     0.42570
N1952       N  0.94064006  0.54663418  0.91691123     0.01460
C1953       C  0.56308871  0.73275923  0.90899939    -0.06420
H1954       H  0.89430283  0.75215560  0.90055278     0.06950
C1955       C  0.90923976  0.68027835  0.82163154    -0.06770
Co1956     Co  0.98765609  0.62812983  0.93025343     0.74180
N1957       N  0.94032611  0.70504290  0.91083631    -0.25950
Co1958     Co  0.98239903  0.70506341  0.88215821     0.74070
C1959       C  0.89447817  0.72426922  0.82812390     0.42670
N1960       N  0.93581630  0.56920819  0.84308121     0.01080
N1961       N  0.93650365  0.70138590  0.85602189     0.01180
N1962       N  0.56553474  0.67991081  0.93932699    -0.46790
H1963       H  0.90826522  0.59912451  0.96400045     0.06940
N1964       N  0.94356468  0.67624568  0.92938261     0.01470
N1965       N  0.52299522  0.70326931  0.85300735     0.01210
C1966       C  0.56146815  0.72678719  0.82359390     0.42810
N1967       N  0.93821916  0.53951689  0.86136708    -0.25400
C1968       C  0.56199546  0.57652701  0.94576365    -0.06320
N1969       N  0.90741546  0.52227528  0.92053407    -0.46510
N1970       N  0.54538480  0.73741643  0.84563722    -0.46730
C1971       C  0.58319459  0.53769996  0.93767771     0.42580
N1972       N  0.53193595  0.67683977  0.92609809     0.01450
N1973       N  0.52415492  0.53995056  0.85852416    -0.25420
N1974       N  0.94383039  0.57919544  0.93293744    -0.25920
N1975       N  0.52261648  0.56938382  0.83998185     0.01090
H1976       H  0.54974322  0.47478965  0.86171460     0.06980
H1977       H  0.54736845  0.66557129  0.79988010     0.07020
N1978       N  0.52982530  0.70690313  0.90803537    -0.25970
N1979       N  0.93549998  0.66922967  0.83964579    -0.25580
N1980       N  0.53055220  0.54658906  0.91477705     0.01460
C1981       C  0.88746924  0.70878639  0.93629302     0.42860
C1982       C  0.91375166  0.50539355  0.85611182    -0.06830
N1983       N  0.52192012  0.67100923  0.83662395    -0.25580
H1984       H  0.90547751  0.66288923  0.80427501     0.07000
N1985       N  0.91299367  0.67762102  0.94487237    -0.46800
H1986       H  0.91287888  0.47412677  0.86625791     0.06990
C1987       C  0.55925058  0.51655115  0.82594196     0.42690
C1988       C  0.91329043  0.57667128  0.94886991    -0.06330
Co1989     Co  0.98355525  0.54219276  0.88817737     0.73820
N1990       N  0.91136950  0.55623786  0.82498503    -0.46520
C1991       C  0.58691325  0.71406657  0.92956351     0.42960
N1992       N  0.56212826  0.52022626  0.91833385    -0.46510
Co1993     Co  0.97905017  0.61962334  0.83958468     0.73890
C1994       C  0.54542612  0.68296269  0.81730513    -0.06830
C1995       C  0.90580573  0.72761349  0.91356693    -0.06400
N1996       N  0.53055221  0.57975816  0.93048325    -0.25920
N1997       N  0.91302022  0.73487331  0.84964705    -0.46690
H1998       H  0.57060258  0.75948220  0.89612498     0.06960
C1999       C  0.54708034  0.50588402  0.85155830    -0.06810
Cl2000     Cl  0.98335678  0.62364678  0.88491306    -0.49810
C2001       C  0.89566885  0.51650194  0.83196042     0.42720
H2002       H  0.56926043  0.59899972  0.96067471     0.06930
N2003       N  0.54240194  0.55608336  0.82009177    -0.46520
C2004       C  0.61441189  0.85279350  0.74887717     0.00680
C2005       C  0.61269417  0.89819386  0.74821364     0.00680
C2006       C  0.86309203  0.85368761  0.75103751     0.00680
C2007       C  0.86304141  0.89882771  0.75070354     0.00680
C2008       C  0.61989098  0.59972840  0.25013403     0.00680
C2009       C  0.62012731  0.64515628  0.24986017     0.00680
C2010       C  0.86144688  0.59799062  0.24889766     0.00680
C2011       C  0.86246253  0.64316161  0.24843600     0.00680
C2012       C  0.89005983  0.95957921  0.06123856     0.42570
N2013       N  0.94213320  0.95267937  0.08478915     0.01460
C2014       C  0.56458165  0.76831815  0.08497542    -0.06420
H2015       H  0.89616200  0.74570766  0.09508237     0.06950
C2016       C  0.91467888  0.81316003  0.17693978    -0.06770
Co2017     Co  0.98943563  0.87426034  0.06900227     0.74180
N2018       N  0.94210459  0.79487199  0.08650577    -0.25950
Co2019     Co  0.98563556  0.79294052  0.11510382     0.74070
C2020       C  0.90057546  0.76874479  0.17045253     0.42670
N2021       N  0.94013817  0.92538951  0.15834910     0.01080
N2022       N  0.94094456  0.79353834  0.14214945     0.01180
N2023       N  0.56424749  0.82373591  0.05619350    -0.46790
H2024       H  0.91096823  0.90421983  0.03565149     0.06940
N2025       N  0.94507037  0.82532022  0.06872092     0.01470
N2026       N  0.52735617  0.79333607  0.14422615     0.01210
C2027       C  0.56592981  0.76857567  0.17348906     0.42810
N2028       N  0.94111802  0.95561944  0.14030644    -0.25400
C2029       C  0.56557116  0.92932508  0.05663605    -0.06320
N2030       N  0.90841101  0.97576654  0.08189337    -0.46510
N2031       N  0.54943349  0.75893049  0.15117603    -0.46730
C2032       C  0.58553083  0.96805671  0.06679650     0.42580
N2033       N  0.53289091  0.82589413  0.07109409     0.01450
N2034       N  0.52714722  0.95707405  0.14239196    -0.25420
N2035       N  0.94591236  0.92222989  0.06766348    -0.25920
N2036       N  0.52704071  0.92626362  0.16018276     0.01090
H2037       H  0.55335391  0.02250883  0.13977526     0.06980
H2038       H  0.55273764  0.82839904  0.19808786     0.07020
N2039       N  0.53205656  0.79414685  0.08827508    -0.25970
N2040       N  0.94022295  0.82519232  0.15885993    -0.25580
N2041       N  0.53152733  0.95540263  0.08716868     0.01460
C2042       C  0.88886380  0.79217489  0.06055231     0.42860
C2043       C  0.91710665  0.98909741  0.14625089    -0.06830
N2044       N  0.52674371  0.82464290  0.16122402    -0.25580
H2045       H  0.91141980  0.83019356  0.19439955     0.07000
N2046       N  0.91439017  0.82455624  0.05304178    -0.46800
H2047       H  0.91586346  0.02068925  0.13646553     0.06990
C2048       C  0.56502136  0.97850848  0.17432074     0.42690
C2049       C  0.91558100  0.92527216  0.05154092    -0.06330
Co2050     Co  0.98537339  0.95599162  0.11338814     0.73820
N2051       N  0.91730840  0.93767800  0.17717352    -0.46520
C2052       C  0.58607150  0.78864426  0.06369073     0.42960
N2053       N  0.56296449  0.98286956  0.08572340    -0.46510
Co2054     Co  0.98363041  0.87537824  0.15989512     0.73890
C2055       C  0.55055848  0.81200181  0.18033625    -0.06830
C2056       C  0.90744928  0.77187134  0.08294652    -0.06400
N2057       N  0.53278767  0.92369080  0.07055815    -0.25920
N2058       N  0.91832879  0.75895193  0.14867382    -0.46690
H2059       H  0.57279992  0.73998290  0.09644640     0.06960
C2060       C  0.55094920  0.99080962  0.14938682    -0.06810
Cl2061     Cl  0.98617081  0.87460895  0.11448134    -0.49810
C2062       C  0.90105137  0.97721202  0.17068760     0.42720
H2063       H  0.57443070  0.90870824  0.04139004     0.06930
N2064       N  0.54856064  0.93835518  0.17983803    -0.46520
C2065       C  0.87016108  0.57125059  0.22645692    -0.05350
C2066       C  0.90889202  0.57161177  0.21619271    -0.32780
C2067       C  0.91900895  0.54147610  0.19768481     0.36470
C2068       C  0.89029207  0.01023520  0.18936645    -0.05710
C2069       C  0.85144388  0.01038027  0.19921929    -0.32680
C2070       C  0.84128310  0.54055539  0.21768284     0.36370
H2071       H  0.93173407  0.59408149  0.22324716     0.16740
O2072       O  0.95764281  0.54113771  0.18880173    -0.60180
H2073       H  0.82909293  0.98672957  0.19280110     0.16760
O2074       O  0.80298871  0.53990410  0.22710474    -0.60280
H2075       H  0.80235056  0.01476961  0.23925134     0.43750
H2076       H  0.95850010  0.56452977  0.17560723     0.43710
C2077       C  0.87492675  0.66910310  0.22603280    -0.05350
C2078       C  0.90874219  0.69674509  0.22834839    -0.32780
C2079       C  0.91732647  0.72909618  0.21030971     0.36470
C2080       C  0.89210329  0.73386531  0.18923571    -0.05710
C2081       C  0.85962054  0.70441595  0.18603234    -0.32680
C2082       C  0.85054353  0.67243403  0.20451858     0.36370
H2083       H  0.92776078  0.69436547  0.24479134     0.16740
O2084       O  0.95085238  0.75546680  0.21326857    -0.60180
H2085       H  0.84050667  0.70729032  0.16966115     0.16760
O2086       O  0.81716416  0.64582047  0.20185535    -0.60280
H2087       H  0.79458572  0.66297231  0.20871641     0.43750
H2088       H  0.94387976  0.77659175  0.22651823     0.43710
C2089       C  0.57849313  0.01052875  0.19331939    -0.05350
C2090       C  0.60754786  0.04307476  0.18728256    -0.32780
C2091       C  0.62064276  0.57371966  0.20512945     0.36470
C2092       C  0.60350031  0.57300386  0.22912851    -0.05710
C2093       C  0.57327057  0.54161444  0.23466743    -0.32680
C2094       C  0.56102582  0.51039215  0.21718653     0.36370
H2095       H  0.62094126  0.04391895  0.16890503     0.16740
O2096       O  0.65095279  0.60312639  0.19920071    -0.60180
H2097       H  0.55969061  0.54062008  0.25299939     0.16760
O2098       O  0.53095710  0.48084132  0.22340845    -0.60280
H2099       H  0.04448078  0.45674342  0.23294287     0.43750
H2100       H  0.67626439  0.08658388  0.20195741     0.43710
C2101       C  0.60752161  0.67234660  0.22759741    -0.05350
C2102       C  0.56798560  0.66983916  0.21828360    -0.32780
C2103       C  0.55452404  0.70021238  0.20001688     0.36470
C2104       C  0.58040032  0.73426238  0.19122732    -0.05710
C2105       C  0.62002494  0.73622921  0.20006837    -0.32680
C2106       C  0.63372253  0.70551592  0.21799789     0.36370
H2107       H  0.54710508  0.64540058  0.22584807     0.16740
O2108       O  0.51535478  0.69795413  0.19191457    -0.60180
H2109       H  0.64031082  0.76195350  0.19324749     0.16760
O2110       O  0.67290134  0.70808547  0.22611451    -0.60280
H2111       H  0.67382494  0.73334690  0.23772126     0.43750
H2112       H  0.51535145  0.67637144  0.17816614     0.43710
C2113       C  0.57223010  0.48432415  0.80688165    -0.05350
C2114       C  0.55554860  0.48688677  0.78279747    -0.32780
C2115       C  0.56695798  0.95743171  0.76423953     0.36470
C2116       C  0.59595922  0.92458495  0.76930212    -0.05710
C2117       C  0.61225485  0.92142646  0.79354913    -0.32680
C2118       C  0.60013916  0.95052189  0.81234123     0.36370
H2119       H  0.53328778  0.51179908  0.77827050     0.16740
O2120       O  0.54927082  0.96076436  0.74110906    -0.60180
H2121       H  0.63536232  0.89731781  0.79773778     0.16760
O2122       O  0.61742935  0.94721150  0.83556612    -0.60280
H2123       H  0.60349601  0.92187168  0.84390756     0.43750
H2124       H  0.56221939  0.48686989  0.73289343     0.43710
C2125       C  0.57526509  0.76089001  0.80566382    -0.05350
C2126       C  0.54727465  0.78974983  0.79448956    -0.32780
C2127       C  0.55976782  0.82196226  0.77698042     0.36470
C2128       C  0.60076976  0.82581636  0.77075390    -0.05710
C2129       C  0.62874727  0.79777865  0.78262922    -0.32680
C2130       C  0.61624186  0.76565694  0.80007779     0.36370
H2131       H  0.51558570  0.78655985  0.79893440     0.16740
O2132       O  0.53164331  0.84836154  0.76546604    -0.60180
H2133       H  0.66031289  0.80001126  0.77774666     0.16760
O2134       O  0.64412011  0.73831689  0.81109532    -0.60280
H2135       H  0.65246001  0.75351254  0.82658012     0.43750
H2136       H  0.52536811  0.83377022  0.74945710     0.43710
C2137       C  0.88538414  0.48324770  0.81319394    -0.05350
C2138       C  0.91498683  0.95335055  0.80583338    -0.32780
C2139       C  0.90795742  0.92458917  0.78599595     0.36470
C2140       C  0.87054391  0.92507428  0.77354487    -0.05710
C2141       C  0.84074177  0.95455713  0.78127222    -0.32680
C2142       C  0.84813775  0.48386019  0.80078322     0.36370
H2143       H  0.94433074  0.95370474  0.81477195     0.16740
O2144       O  0.93874511  0.89888276  0.77760739    -0.60180
H2145       H  0.81201129  0.95568187  0.77163932     0.16760
O2146       O  0.81896762  0.51316058  0.80747443    -0.60280
H2147       H  0.82329349  0.53963545  0.79658201     0.43750
H2148       H  0.94477809  0.87768780  0.79143232     0.43710
C2149       C  0.88632342  0.75918164  0.80940308    -0.05350
C2150       C  0.91186892  0.76288480  0.78879797    -0.32780
C2151       C  0.90647315  0.79622357  0.77096058     0.36470
C2152       C  0.87473808  0.82652510  0.77325454    -0.05710
C2153       C  0.85024017  0.82433999  0.79452225    -0.32680
C2154       C  0.85611315  0.79090917  0.81269259     0.36370
H2155       H  0.93633752  0.73983415  0.78650131     0.16740
O2156       O  0.93141984  0.79773674  0.75067085    -0.60180
H2157       H  0.82543159  0.84705977  0.79637514     0.16760
O2158       O  0.83167632  0.78880336  0.83320259    -0.60280
H2159       H  0.80870629  0.76954536  0.82829748     0.43750
H2160       H  0.95193607  0.82068042  0.75452773     0.43710
C2161       C  0.69017998  0.75894286  0.02033805    -0.05350
C2162       C  0.68349507  0.80218580  0.02791263    -0.32780
C2163       C  0.65003755  0.81170562  0.04248919     0.36470
C2164       C  0.62500101  0.77743788  0.05197921    -0.05710
C2165       C  0.63499008  0.73338224  0.04709518    -0.32680
C2166       C  0.66687240  0.72406499  0.03089136     0.36370
H2167       H  0.70118659  0.82925522  0.02000845     0.16740
O2168       O  0.64042791  0.85503353  0.04600745    -0.60180
H2169       H  0.61605764  0.70651811  0.05400989     0.16760
O2170       O  0.67291115  0.68115607  0.02384653    -0.60280
H2171       H  0.69632574  0.67088963  0.03384588     0.43750
H2172       H  0.63134481  0.86632919  0.02944797     0.43710
C2173       C  0.78007336  0.76898804  0.01781252    -0.05350
C2174       C  0.78559533  0.74553995  0.04049568    -0.32780
C2175       C  0.82012949  0.75309041  0.05542456     0.36470
C2176       C  0.84947571  0.78455968  0.04769083    -0.05710
C2177       C  0.84171805  0.81012770  0.02612357    -0.32680
C2178       C  0.80777301  0.80268215  0.01137122     0.36370
H2179       H  0.76501420  0.71887316  0.04554788     0.16740
O2180       O  0.82584046  0.72774138  0.07654425    -0.60180
H2181       H  0.86318749  0.83489280  0.01965767     0.16760
O2182       O  0.80282155  0.82704313  0.98970750    -0.60280
H2183       H  0.82711082  0.82183561  0.97952113     0.43750
H2184       H  0.81302310  0.74448017  0.09008587     0.43710
C2185       C  0.62602322  0.72859513  0.93988289    -0.05350
C2186       C  0.63013111  0.77083783  0.94984309    -0.32780
C2187       C  0.66163594  0.78014945  0.96655497     0.36470
C2188       C  0.68867153  0.74636741  0.97404959    -0.05710
C2189       C  0.68729063  0.70591133  0.96154569    -0.32680
C2190       C  0.65687858  0.69771211  0.94390165     0.36370
H2191       H  0.60750970  0.79570555  0.94601583     0.16740
O2192       O  0.66552414  0.82215377  0.97577578    -0.60180
H2193       H  0.70858794  0.68008989  0.96619033     0.16760
O2194       O  0.65698185  0.65916882  0.93084104    -0.60280
H2195       H  0.67295420  0.66593405  0.91566557     0.43750
H2196       H  0.64015726  0.82796027  0.98477686     0.43710
C2197       C  0.77841275  0.73205957  0.97666547    -0.05350
C2198       C  0.78500972  0.75578545  0.95423662    -0.32780
C2199       C  0.81950786  0.74779003  0.93984105     0.36470
C2200       C  0.84762859  0.71576912  0.94800246    -0.05710
C2201       C  0.83833807  0.68952197  0.96906007    -0.32680
C2202       C  0.80413728  0.69710624  0.98311322     0.36370
H2203       H  0.76561833  0.78318183  0.94916751     0.16740
O2204       O  0.82672551  0.77366531  0.91909894    -0.60180
H2205       H  0.85899830  0.66454754  0.97585098     0.16760
O2206       O  0.79757442  0.67259081  0.00452628    -0.60280
H2207       H  0.82176805  0.67686315  0.01518796     0.43750
H2208       H  0.81326548  0.75795776  0.90520338     0.43710
C2209       C  0.62560733  0.98388182  0.05928181    -0.05350
C2210       C  0.65581507  0.95232168  0.05740224    -0.32780
C2211       C  0.68663355  0.95760766  0.03993093     0.36470
C2212       C  0.68965574  0.99723719  0.02582105    -0.05710
C2213       C  0.66317247  0.03203483  0.03129784    -0.32680
C2214       C  0.63075494  0.02526080  0.04753982     0.36370
H2215       H  0.65300589  0.92151614  0.06779358     0.16740
O2216       O  0.70959025  0.92174222  0.03440347    -0.60180
H2217       H  0.66525301  0.56328319  0.02130928     0.16760
O2218       O  0.60190289  0.55718791  0.04939439    -0.60280
H2219       H  0.60966152  0.57441997  0.06428921     0.43750
H2220       H  0.72397306  0.91378272  0.05009075     0.43710
C2221       C  0.77888257  0.98412935  0.02379822    -0.05350
C2222       C  0.79380719  0.01637831  0.04022674    -0.32780
C2223       C  0.82898403  0.00840417  0.05431164     0.36470
C2224       C  0.84839495  0.96736798  0.05244904    -0.05710
C2225       C  0.82953378  0.93348304  0.03895021    -0.32680
C2226       C  0.79580163  0.94183193  0.02428521     0.36370
H2227       H  0.78023747  0.54880993  0.04058664     0.16740
O2228       O  0.84546948  0.54166712  0.06830193    -0.60180
H2229       H  0.84239545  0.90084053  0.03835553     0.16760
O2230       O  0.78179900  0.90972485  0.00854626    -0.60280
H2231       H  0.77226820  0.88508755  0.01950821     0.43750
H2232       H  0.86256585  0.55916173  0.05658776     0.43710
C2233       C  0.68943519  0.50792504  0.97925047    -0.05350
C2234       C  0.66605355  0.47271541  0.96974108    -0.32780
C2235       C  0.63329174  0.48098663  0.95361242     0.36470
C2236       C  0.62315769  0.52493872  0.94754157    -0.05710
C2237       C  0.64862667  0.55926234  0.95545098    -0.32680
C2238       C  0.68159131  0.55130716  0.97098783     0.36370
H2239       H  0.67137470  0.43913051  0.97633773     0.16740
O2240       O  0.60888339  0.44657565  0.94642467    -0.60180
H2241       H  0.64073948  0.59304204  0.95146377     0.16760
O2242       O  0.70391223  0.58640685  0.97967379    -0.60280
H2243       H  0.68478496  0.60675400  0.98767493     0.43750
H2244       H  0.61943036  0.43753214  0.93003006     0.43710
C2245       C  0.77892039  0.50968097  0.97941676    -0.05350
C2246       C  0.79552476  0.47719109  0.96400440    -0.32780
C2247       C  0.82985416  0.48678449  0.94940568     0.36470
C2248       C  0.84750868  0.52937949  0.95001162    -0.05710
C2249       C  0.82751395  0.56266546  0.96287183    -0.32680
C2250       C  0.79474131  0.55287458  0.97811889     0.36370
H2251       H  0.78382648  0.44361294  0.96468545     0.16740
O2252       O  0.84772493  0.45350176  0.93651686    -0.60180
H2253       H  0.83910601  0.59612788  0.96274209     0.16760
O2254       O  0.78104846  0.58477679  0.99375234    -0.60280
H2255       H  0.80295025  0.58910470  0.00613703     0.43750
H2256       H  0.83570900  0.45515386  0.91956058     0.43710
C2257       C  0.62958725  0.92539812  0.72708649    -0.05350
C2258       C  0.65797437  0.95839388  0.73287930    -0.32780
C2259       C  0.67087430  0.98934378  0.71493827     0.36470
C2260       C  0.65586481  0.48756016  0.69027922    -0.05710
C2261       C  0.62866424  0.95341915  0.68409653    -0.32680
C2262       C  0.61498878  0.92289211  0.70236516     0.36370
H2263       H  0.66967335  0.96076588  0.75172714     0.16740
O2264       O  0.69905030  0.52052005  0.72166992    -0.60180
H2265       H  0.61693069  0.45133597  0.66525717     0.16760
O2266       O  0.58633544  0.89199971  0.69606086    -0.60280
H2267       H  0.56017692  0.90606125  0.69958160     0.43750
H2268       H  0.68368478  0.04398812  0.73005407     0.43710
C2269       C  0.65795355  0.76292864  0.69368765    -0.05350
C2270       C  0.68384142  0.79587182  0.70308582    -0.32780
C2271       C  0.66994311  0.82687925  0.72025763     0.36470
C2272       C  0.62940703  0.82567959  0.72780689    -0.05710
C2273       C  0.60357432  0.79300102  0.71794579    -0.32680
C2274       C  0.61764615  0.76165057  0.70121803     0.36370
H2275       H  0.71518725  0.79679694  0.69760091     0.16740
O2276       O  0.69664993  0.85610511  0.73080765    -0.60180
H2277       H  0.57246520  0.79105427  0.72379239     0.16760
O2278       O  0.59164724  0.73020742  0.69208565    -0.60280
H2279       H  0.59336301  0.70487059  0.70404493     0.43750
H2280       H  0.70382882  0.87746338  0.71726534     0.43710
C2281       C  0.85567160  0.92501420  0.72737348    -0.05350
C2282       C  0.88582464  0.95443475  0.71887722    -0.32780
C2283       C  0.87876750  0.98321534  0.69861447     0.36470
C2284       C  0.84126845  0.48264145  0.68644129    -0.05710
C2285       C  0.81137123  0.45254011  0.69448470    -0.32680
C2286       C  0.81817713  0.92421295  0.71501195     0.36370
H2287       H  0.91463982  0.95578704  0.72841715     0.16740
O2288       O  0.90818188  0.51281593  0.69137574    -0.60180
H2289       H  0.78198624  0.45257803  0.68560370     0.16760
O2290       O  0.78749775  0.89740400  0.72351472    -0.60280
H2291       H  0.77280962  0.91543938  0.73572688     0.43750
H2292       H  0.92379518  0.99730017  0.67851116     0.43710
C2293       C  0.84512286  0.75893886  0.69393546    -0.05350
C2294       C  0.81820565  0.76121010  0.71387336    -0.32780
C2295       C  0.82151255  0.79501961  0.73111922     0.36470
C2296       C  0.85258506  0.82686255  0.72894170    -0.05710
C2297       C  0.87827931  0.82612156  0.70825311    -0.32680
C2298       C  0.87448503  0.79240944  0.69067279     0.36370
H2299       H  0.79413628  0.73697135  0.71597176     0.16740
O2300       O  0.79526411  0.79564147  0.75076259    -0.60180
H2301       H  0.90259626  0.85012734  0.70652480     0.16760
O2302       O  0.90002047  0.79187025  0.67068481    -0.60280
H2303       H  0.92327511  0.77390094  0.67635413     0.43750
H2304       H  0.77194994  0.81305107  0.74465072     0.43710
C2305       C  0.65345834  0.00930218  0.30974871    -0.05350
C2306       C  0.67433757  0.51028002  0.28707741    -0.32780
C2307       C  0.66510177  0.54142092  0.26837522     0.36470
C2308       C  0.63435968  0.57250636  0.27194385    -0.05710
C2309       C  0.61415585  0.57256497  0.29491869    -0.32680
C2310       C  0.62392174  0.54157503  0.31388670     0.36370
H2311       H  0.69809923  0.98677540  0.28377836     0.16740
O2312       O  0.68661191  0.54157567  0.24660888    -0.60180
H2313       H  0.58989960  0.59561434  0.29781652     0.16760
O2314       O  0.60293744  0.04151545  0.33582581    -0.60280
H2315       H  0.61587058  0.56493725  0.34595975     0.43750
H2316       H  0.67605083  0.51603401  0.23707803     0.43710
C2317       C  0.65286008  0.73186499  0.30975733    -0.05350
C2318       C  0.68012005  0.69960582  0.30208788    -0.32780
C2319       C  0.66977528  0.66993153  0.28318125     0.36470
C2320       C  0.63113767  0.67149519  0.27226376    -0.05710
C2321       C  0.60359465  0.70311463  0.28058785    -0.32680
C2322       C  0.61445915  0.73358560  0.29888161     0.36370
H2323       H  0.71014734  0.69862896  0.31005507     0.16740
O2324       O  0.69853708  0.64229493  0.27406144    -0.60180
H2325       H  0.57390859  0.70513721  0.27219930     0.16760
O2326       O  0.58734785  0.76483263  0.30606181    -0.60280
H2327       H  0.59148871  0.79027876  0.29438890     0.43750
H2328       H  0.70521124  0.62163518  0.28802312     0.43710
C2329       C  0.85399878  0.57180812  0.27211070    -0.05350
C2330       C  0.88278710  0.54030934  0.27954304    -0.32780
C2331       C  0.87506243  0.51055256  0.29917138     0.36470
C2332       C  0.83842557  0.01244144  0.31186012    -0.05710
C2333       C  0.81006384  0.04473502  0.30508293    -0.32680
C2334       C  0.81737939  0.57395129  0.28507324     0.36370
H2335       H  0.91094882  0.53800034  0.26957797     0.16740
O2336       O  0.90290378  0.97889377  0.30532113    -0.60180
H2337       H  0.78134831  0.04582669  0.31453198     0.16760
O2338       O  0.78788413  0.60279228  0.27757777    -0.60280
H2339       H  0.77010772  0.58557738  0.26632345     0.43750
H2340       H  0.92021603  0.49257657  0.31826962     0.43710
C2341       C  0.83745486  0.73634352  0.30616901    -0.05350
C2342       C  0.86739101  0.70439583  0.31020454    -0.32780
C2343       C  0.87512548  0.67227101  0.29216334     0.36470
C2344       C  0.85176263  0.67097346  0.27014599    -0.05710
C2345       C  0.82084847  0.70183628  0.26672999    -0.32680
C2346       C  0.81350078  0.73410501  0.28441510     0.36370
H2347       H  0.88553750  0.70516383  0.32704496     0.16740
O2348       O  0.90627502  0.64339149  0.29585509    -0.60180
H2349       H  0.80272054  0.70147976  0.24987788     0.16760
O2350       O  0.78269389  0.76324052  0.28013681    -0.60280
H2351       H  0.75910597  0.75006839  0.28884570     0.43750
H2352       H  0.93020732  0.65856551  0.28863119     0.43710
C2353       C  0.55017898  0.75038285  0.52501964    -0.05350
C2354       C  0.55591411  0.70851665  0.53588183    -0.32780
C2355       C  0.58768296  0.70154630  0.55260366     0.36470
C2356       C  0.61379527  0.73685728  0.55874419    -0.05710
C2357       C  0.60516434  0.77974453  0.55016387    -0.32680
C2358       C  0.57336446  0.78668305  0.53333577     0.36370
H2359       H  0.53773069  0.68054140  0.52998064     0.16740
O2360       O  0.59434462  0.65968872  0.56200285    -0.60180
H2361       H  0.62507235  0.80711398  0.55473822     0.16760
O2362       O  0.56710198  0.82839317  0.52366772    -0.60280
H2363       H  0.55022829  0.84339914  0.53609901     0.43750
H2364       H  0.60161261  0.64179976  0.54742487     0.43710
C2365       C  0.96323334  0.74275605  0.52829215    -0.05350
C2366       C  0.94762090  0.69991495  0.53030590    -0.32780
C2367       C  0.91420397  0.69113787  0.54511473     0.36470
C2368       C  0.89551756  0.72538015  0.55819144    -0.05710
C2369       C  0.91494796  0.76681869  0.55928176    -0.32440
C2370       C  0.94921508  0.77547914  0.54457911     0.36370
H2371       H  0.95851788  0.67420192  0.51823957     0.16740
O2372       O  0.89744838  0.64979983  0.54447498    -0.60180
H2373       H  0.90192447  0.79332775  0.56985998     0.16760
O2374       O  0.96614224  0.81707475  0.54433301    -0.60280
H2375       H  0.98604149  0.81666021  0.55817845     0.43750
H2376       H  0.87995447  0.65136172  0.52952489     0.43710
C2377       C  0.54569990  0.75886882  0.47846156    -0.05350
C2378       C  0.55418576  0.80110086  0.46861270    -0.32780
C2379       C  0.58572470  0.80725055  0.45172031     0.36470
C2380       C  0.60906518  0.77083694  0.44442744    -0.05710
C2381       C  0.59714286  0.72800652  0.45168723    -0.32680
C2382       C  0.56586965  0.72188221  0.46891954     0.36370
H2383       H  0.53879692  0.82977122  0.47568066     0.16740
O2384       O  0.59576170  0.84948214  0.44407750    -0.60180
H2385       H  0.61456736  0.69972830  0.44606658     0.16760
O2386       O  0.55682939  0.67993070  0.47758534    -0.60280
H2387       H  0.57988914  0.67115846  0.48834109     0.43750
H2388       H  0.58016361  0.85466809  0.42850787     0.43710
C2389       C  0.95601775  0.76452666  0.48332189    -0.05350
C2390       C  0.93003953  0.79954872  0.48715702    -0.32780
C2391       C  0.89353449  0.80194103  0.47483488     0.36470
C2392       C  0.88476738  0.77385588  0.45450292    -0.05710
C2393       C  0.91268185  0.74079650  0.44878377    -0.32680
C2394       C  0.94741635  0.73479703  0.46382332     0.36370
H2395       H  0.93589352  0.82291944  0.50183471     0.16740
O2396       O  0.86622564  0.83147664  0.48372259    -0.60180
H2397       H  0.90658679  0.71831699  0.43365592     0.16760
O2398       O  0.97165622  0.69911824  0.45994276    -0.60280
H2399       H  0.95941512  0.67440615  0.46977388     0.43750
H2400       H  0.85141374  0.81511749  0.49704589     0.43710
C2401       C  0.53971418  0.52120316  0.51870896    -0.05350
C2402       C  0.56451450  0.55544196  0.50979895    -0.32780
C2403       C  0.60150067  0.56427762  0.52090280     0.36470
C2404       C  0.61228165  0.54365044  0.54390975    -0.05710
C2405       C  0.58546122  0.51227299  0.55435064    -0.32680
C2406       C  0.54981886  0.50020714  0.54160084     0.36370
H2407       H  0.55799706  0.07104098  0.49189104     0.16740
O2408       O  0.62788164  0.09057908  0.50770204    -0.60180
H2409       H  0.59291687  0.49569394  0.57181461     0.16760
O2410       O  0.52708412  0.46544412  0.55053009    -0.60280
H2411       H  0.51276388  0.47726696  0.56513583     0.43750
H2412       H  0.64389528  0.06983451  0.49767257     0.43710
C2413       C  0.87496703  0.53226806  0.54083469    -0.05350
C2414       C  0.89606256  0.49370136  0.54763710    -0.32780
C2415       C  0.93152380  0.48249098  0.53471416     0.36470
C2416       C  0.94910056  0.51338650  0.51773218    -0.05710
C2417       C  0.93062557  0.55398295  0.51402045    -0.32680
C2418       C  0.89123173  0.55929500  0.52152585     0.36370
H2419       H  0.88357328  0.47085182  0.56138799     0.16740
O2420       O  0.94656236  0.94034354  0.53689599    -0.60180
H2421       H  0.94357170  0.57828794  0.50139363     0.16760
O2422       O  0.86767210  0.58665294  0.50715270    -0.60280
H2423       H  0.85544765  0.56731655  0.49431661     0.43750
H2424       H  0.95055877  0.93457698  0.55499889     0.43710
C2425       C  0.61409724  0.95651056  0.45589142    -0.05350
C2426       C  0.58755991  0.98741777  0.44513816    -0.32780
C2427       C  0.55178963  0.99852123  0.45737194     0.36470
C2428       C  0.54163874  0.97722636  0.48013515    -0.05710
C2429       C  0.56605959  0.94359145  0.48942658    -0.32680
C2430       C  0.60275023  0.93479796  0.47852867     0.36370
H2431       H  0.59539208  0.00448932  0.42788939     0.16740
O2432       O  0.52915511  0.03289616  0.44823608    -0.60180
H2433       H  0.55914581  0.92785411  0.50723982     0.16760
O2434       O  0.62876978  0.90874002  0.49201645    -0.60280
H2435       H  0.61731003  0.87828502  0.49146240     0.43750
H2436       H  0.51484926  0.02087632  0.43349832     0.43710
C2437       C  0.88912427  0.96257612  0.44305454    -0.05350
C2438       C  0.90166248  0.00677477  0.44376619    -0.32780
C2439       C  0.93479967  0.01878848  0.45866503     0.36470
C2440       C  0.95389228  0.98629866  0.47390089    -0.05710
C2441       C  0.94535240  0.94162310  0.46984450    -0.32680
C2442       C  0.91429120  0.92974085  0.45358368     0.36370
H2443       H  0.88434999  0.53219882  0.43421947     0.16740
O2444       O  0.94837169  0.56198121  0.45840012    -0.60180
H2445       H  0.96114162  0.91609984  0.48033123     0.16760
O2446       O  0.90748010  0.88584522  0.44899557    -0.60280
H2447       H  0.92210362  0.87995400  0.43334666     0.43750
H2448       H  0.92433247  0.58106892  0.45968858     0.43710
loop_ 
_geom_bond_atom_site_label_1 
_geom_bond_atom_site_label_2 
_geom_bond_distance 
_geom_bond_site_symmetry_2 
_ccdc_geom_bond_type 
C1          C565   1.490   1_565  S
C1         C1204   1.482       .  S
C1         C1838   1.350   1_455  D
C2          C604   1.489       .  S
C2         C1192   1.484       .  S
C2         C1837   1.350       .  D
C3          C529   1.487       .  S
C3          C553   1.487       .  S
C3         C1228   1.349       .  D
C4          C517   1.481       .  S
C4          C541   1.483       .  S
C4         C1227   1.349   1_455  D
C5           N23   1.356       .  A
C5           C42   1.444       .  S
C5          C601   1.476       .  S
N6           N23   1.332       .  A
N6           N28   1.317       .  A
N6          Co43   2.103       .  S
C7           N32   1.352       .  A
C7           C45   1.469       .  S
C7           H52   1.081       .  S
H8           C49   1.081       .  S
C9           N33   1.339       .  A
C9           C13   1.466       .  S
C9           H38   1.082       .  S
Co10         N28   2.055       .  S
Co10         N18   2.034       .  S
Co10         N50   2.020       .  S
Co10         N26   2.057       .  S
Co10        Cl54   2.427       .  S
N11          C49   1.360       .  A
N11          N18   1.314       .  A
N11         Co12   2.118       .  S
Co12         N15   2.080       .  S
Co12         N32   2.107       .  S
Co12         N19   2.081       .  S
Co12        Cl54   2.468       .  S
C13          N51   1.350       .  A
C13         C505   1.480       .  S
N14          N21   1.320       .  A
N14          N44   1.323       .  A
N14         Co47   2.089       .  S
N15          N33   1.322       .  A
N15          N51   1.325       .  A
N16          C45   1.339       .  A
N16          N26   1.317       .  A
H17          C42   1.074       .  S
N18          N39   1.308       .  A
N19          N37   1.322       .  A
N19          N24   1.322       .  A
C20          N24   1.347       .  A
C20          C48   1.463       .  S
C20         C481   1.470       .  S
N21          C36   1.336       .  A
N21         Co43   2.070       .  S
C22          N50   1.317       .  A
C22          C25   1.443       .  S
C22          H56   1.074       .  S
C25          N46   1.367       .  A
C25         C589   1.487       .  S
N26          N32   1.318       .  A
N27          C53   1.343       .  A
N27          N29   1.323       .  A
N27         Co43   2.083       .  S
N28          C42   1.328       .  A
N29          N57   1.325       .  A
N29         Co47   2.107       .  S
H30          C53   1.082       .  S
H31          C48   1.082       .  S
N33         Co47   2.099       .  S
N34          N46   1.335       .  A
N34          N50   1.312       .  A
N34         Co43   2.117       .  S
C35          N39   1.334       .  A
C35          C49   1.484       .  S
C35         C556   1.491       .  S
C36          C55   1.455       .  S
C36          H40   1.082       .  S
N37          C48   1.342       .  A
N37         Co47   2.092       .  S
C41          N57   1.354       .  A
C41          C53   1.462       .  S
C41         C469   1.485       .  S
Co43        Cl54   2.466       .  S
N44          C55   1.351       .  A
C45         C544   1.474       .  S
Co47        Cl54   2.427       .  S
C55         C496   1.464       .  S
C58          N76   1.366       .  A
C58          C95   1.450       .  S
C58         C577   1.494       .  S
N59          N76   1.336       .  A
N59          N81   1.315       .  A
N59         Co96   2.127       .  S
C60          N85   1.349       .  A
C60          C98   1.465       .  S
C60         H105   1.081       .  S
H61         C102   1.081       .  S
C62          N86   1.339       .  A
C62          C66   1.468       .  S
C62          H91   1.082       .  S
Co63         N81   2.036       .  S
Co63         N71   2.072       .  S
Co63        N103   2.045       .  S
Co63         N79   2.054       .  S
Co63       Cl107   2.423       .  S
N64         C102   1.350       .  A
N64          N71   1.315       .  A
N64         Co65   2.086       .  S
Co65         N68   2.059       .  S
Co65         N85   2.089       .  S
Co65         N72   2.074       .  S
Co65       Cl107   2.465       .  S
C66         N104   1.344       .  A
C66         C457   1.467       .  S
N67          N74   1.323       .  A
N67          N97   1.324       .  A
N67        Co100   2.096       .  S
N68          N86   1.319       .  A
N68         N104   1.320       .  A
N69          C98   1.339       .  A
N69          N79   1.316       .  A
H70          C95   1.075       .  S
N71          N92   1.318       .  A
N72          N90   1.322       .  A
N72          N77   1.322       .  A
C73          N77   1.345       .  A
C73         C101   1.466       .  S
C73         C433   1.475       .  S
N74          C89   1.341       .  A
N74         Co96   2.089       .  S
C75         N103   1.323       .  A
C75          C78   1.448       .  S
C75         H109   1.076       .  S
C78          N99   1.366       .  A
C78         C568   1.493       .  S
N79          N85   1.316       .  A
N80         C106   1.346       .  A
N80          N82   1.324       .  A
N80         Co96   2.096       .  S
N81          C95   1.319       .  A
N82         N110   1.322       .  A
N82        Co100   2.094       .  S
H83         C106   1.082   1_565  S
H84         C101   1.082       .  S
N86        Co100   2.091       .  S
N87          N99   1.335       .  A
N87         N103   1.317       .  A
N87         Co96   2.126       .  S
C88          N92   1.347       .  A
C88         C102   1.465       .  S
C88         C532   1.484       .  S
C89         C108   1.462       .  S
C89          H93   1.082   1_545  S
N90         C101   1.345       .  A
N90        Co100   2.104       .  S
C94         N110   1.350       .  A
C94         C106   1.465       .  S
C94         C424   1.487   1_545  S
Co96       Cl107   2.479       .  S
N97         C108   1.350       .  A
C98         C520   1.467       .  S
Co100      Cl107   2.427       .  S
C108        C448   1.472   1_545  S
C111        C385   1.482       .  S
C111       C1021   1.493   1_554  S
C111        C112   1.360       .  D
C112        C376   1.497       .  S
C112       C1009   1.486   1_554  S
C113        C337   1.497   1_556  S
C113        C361   1.488       .  S
C113        C114   1.359       .  D
C114        C325   1.487   1_556  S
C114        C352   1.497       .  S
C115        N133   1.358       .  A
C115        C152   1.453       .  S
C115        C412   1.489       .  S
N116        N133   1.334       .  A
N116        N138   1.319       .  A
N116       Co153   2.112       .  S
C117        N142   1.348       .  A
C117        C155   1.463       .  S
C117        H162   1.081       .  S
H118        C159   1.080       .  S
C119        N143   1.338       .  A
C119        C123   1.467       .  S
C119        H148   1.082       .  S
Co120       N138   2.068       .  S
Co120       N128   2.072       .  S
Co120      N1384   2.050       .  S
Co120      N1360   2.080       .  S
Co120      Cl164   2.440       .  S
N121        C159   1.350       .  A
N121        N128   1.315       .  A
N121       Co122   2.084       .  S
Co122       N125   2.069       .  S
Co122      N1366   2.095       .  S
Co122      N1353   2.072       .  S
Co122      Cl164   2.459       .  S
C123        N161   1.347       .  A
C123        C313   1.469       .  S
N124        N131   1.320       .  A
N124        N154   1.324       .  A
N124       Co157   2.089       .  S
N125        N143   1.319       .  A
N125        N161   1.322       .  A
N126        C155   1.347       .  A
N126        N136   1.323       .  A
H127        C152   1.080       .  S
N128        N149   1.317       .  A
N129        N147   1.322       .  A
N129        N134   1.322       .  A
N129      Co1346   2.072   1_455  S
C130        N134   1.345       .  A
C130        C158   1.465       .  S
C130        C289   1.469       .  S
N131        C146   1.338       .  A
N131       Co153   2.078       .  S
C132        N160   1.327       .  A
C132        C135   1.447       .  S
C132        H166   1.081       .  S
C135        N156   1.359       .  A
C135        C400   1.479       .  S
N136        N142   1.318       .  A
N136      Co1344   2.080   1_455  S
N137        C163   1.344       .  A
N137        N139   1.324       .  A
N137      Co1377   2.094   1_455  S
N138        C152   1.331       .  A
N139        N167   1.326       .  A
N139      Co1381   2.106   1_455  S
H140        C163   1.081   1_565  S
H141        C158   1.082       .  S
N142      Co1346   2.095   1_455  S
N143       Co157   2.092       .  S
N144        N156   1.334       .  A
N144        N160   1.318       .  A
N144      Co1377   2.114   1_455  S
C145        N149   1.346       .  A
C145        C159   1.469       .  S
C145        C364   1.487       .  S
C146        C165   1.460       .  S
C146        H150   1.082   1_545  S
N147        C158   1.344       .  A
N147      Co1381   2.100   1_455  S
C151        N167   1.354       .  A
C151        C163   1.464       .  S
C151        C277   1.490   1_545  S
Co153      N1361   2.094       .  S
Co153      N1368   2.114       .  S
Co153      Cl164   2.461       .  S
N154        C165   1.351       .  A
C155        C349   1.475       .  S
Co157      N1363   2.106       .  S
Co157      N1371   2.100       .  S
Co157      Cl164   2.439       .  S
N160      Co1344   2.050   1_455  S
C165        C301   1.469   1_545  S
C168        C292   1.487       .  S
C168        C436   1.496       .  S
C168        C169   1.372       .  D
C169        C280   1.506       .  S
C169        C421   1.497       .  S
C170        C316   1.487       .  S
C170        C460   1.484       .  S
C170        C171   1.362       .  D
C171        C304   1.488       .  S
C171        C445   1.489       .  S
C172        C256   1.493       .  S
C172        C472   1.498       .  S
C172        C173   1.371       .  D
C173        C265   1.498       .  S
C173        C484   1.493       .  S
C174        C229   1.491       .  S
C174        C493   1.484       .  S
C174        C175   1.363       .  D
C175        C241   1.482       .  S
C175        C508   1.493       .  S
C176        N194   1.357       .  A
C176        C213   1.449       .  S
C176        C388   1.480       .  S
N177        N194   1.332       .  A
N177        N199   1.317       .  A
N177       Co214   2.098       .  S
C178        N203   1.353       .  A
C178        C216   1.472       .  S
C178        H223   1.081       .  S
H179        C220   1.081       .  S
C180        N204   1.336       .  A
C180        C184   1.462       .  S
C180        H209   1.082       .  S
Co181       N199   2.056       .  S
Co181       N189   2.077       .  S
Co181      N1445   2.066       .  S
Co181      N1421   2.064       .  S
Co181      Cl225   2.442       .  S
N182        C220   1.353       .  A
N182        N189   1.317       .  A
N182       Co183   2.103       .  S
Co183       N186   2.082       .  S
Co183      N1427   2.115       .  S
Co183      N1414   2.082       .  S
Co183      Cl225   2.464       .  S
C184        N222   1.350       .  A
C184        C244   1.471       .  S
N185        N192   1.319       .  A
N185        N215   1.326       .  A
N185       Co218   2.100       .  S
N186        N204   1.321       .  A
N186        N222   1.324       .  A
N187        C216   1.344       .  A
N187        N197   1.319       .  A
H188        C213   1.080       .  S
N189        N210   1.318       .  A
N190        N208   1.324       .  A
N190        N195   1.324       .  A
N190      Co1407   2.082   1_455  S
C191        N195   1.348       .  A
C191        C219   1.464       .  S
C191        C268   1.477       .  S
N192        C207   1.337       .  A
N192       Co214   2.066       .  S
C193        N221   1.332       .  A
C193        C196   1.451       .  S
C193        H227   1.079       .  S
C196        N217   1.350       .  A
C196        C373   1.467       .  S
N197        N203   1.318       .  A
N197      Co1405   2.064   1_455  S
N198        C224   1.340       .  A
N198        N200   1.321       .  A
N198      Co1438   2.079   1_455  S
N199        C213   1.327       .  A
N200        N228   1.324       .  A
N200      Co1442   2.097   1_455  S
H201        C224   1.082       .  S
H202        C219   1.082       .  S
N203      Co1407   2.115   1_455  S
N204       Co218   2.082       .  S
N205        N217   1.329       .  A
N205        N221   1.319       .  A
N205      Co1438   2.087   1_455  S
C206        N210   1.346       .  A
C206        C220   1.474       .  S
C206        C340   1.494       .  S
C207        C226   1.456       .  S
C207        H211   1.082       .  S
N208        C219   1.344       .  A
N208      Co1442   2.107   1_455  S
C212        N228   1.354       .  A
C212        C224   1.457       .  S
C212        C253   1.480       .  S
Co214      N1422   2.079       .  S
Co214      N1429   2.087       .  S
Co214      Cl225   2.456       .  S
N215        C226   1.354       .  A
C216        C328   1.486       .  S
Co218      N1424   2.097       .  S
Co218      N1432   2.107       .  S
Co218      Cl225   2.438       .  S
N221      Co1405   2.066   1_455  S
C226        C232   1.472       .  S
C229        C230   1.403       .  A
C229        C234   1.411       .  A
C230        H235   1.084       .  S
C230        C231   1.401       .  A
C231        C844   1.410       .  A
C231        O236   1.372       .  S
C232        C233   1.398       .  A
C232        C843   1.410       .  A
C233        H237   1.084       .  S
C233        C846   1.401       .  A
C234        C845   1.401       .  A
C234        O238   1.372       .  S
O236        H240   0.992       .  S
O238        H851   0.992       .  S
H239        O850   0.992       .  S
C241        C242   1.399       .  A
C241        C246   1.409       .  A
C242        H247   1.084       .  S
C242        C243   1.392       .  A
C243        C244   1.409       .  A
C243        O248   1.373       .  S
C244        C245   1.403       .  A
C245        H249   1.083       .  S
C245        C246   1.404       .  A
C246        O250   1.371       .  S
O248        H252   0.992       .  S
O250        H251   0.991       .  S
C253        C254   1.406       .  A
C253        C870   1.408       .  A
C254        H259   1.083       .  S
C254        C867   1.406       .  A
C255        C256   1.410       .  A
C255        C866   1.406       .  A
C255        O260   1.371       .  S
C256        C257   1.404       .  A
C257        H261   1.084       .  S
C257        C258   1.396       .  A
C258        C865   1.408       .  A
C258        O262   1.372   1_545  S
O260        H876   0.991       .  S
O262       H1487   0.992       .  S
H263       O1486   0.992       .  S
H264        O872   0.991       .  S
C265        C266   1.405       .  A
C265        C270   1.413       .  A
C266        H271   1.083       .  S
C266        C267   1.405       .  A
C267        C268   1.410       .  A
C267        O272   1.371       .  S
C268        C269   1.398       .  A
C269        H273   1.084       .  S
C269        C270   1.402       .  A
C270        O274   1.372       .  S
O272        H276   0.992       .  S
O274        H275   0.992       .  S
C277        C278   1.404       .  A
C277        C894   1.411       .  A
C278        H283   1.083   1_565  S
C278        C891   1.401       .  A
C279        C280   1.411       .  A
C279        C890   1.401       .  A
C279        O284   1.372       .  S
C280        C281   1.408       .  A
C281        H285   1.083       .  S
C281        C282   1.410       .  A
C282        C889   1.411       .  A
C282        O286   1.371       .  S
O284        H900   0.992       .  S
O286        H287   0.992       .  S
H288        O896   0.992       .  S
C289        C290   1.405       .  A
C289        C294   1.401       .  A
C290        H295   1.084       .  S
C290        C291   1.402       .  A
C291        C292   1.408       .  A
C291        O296   1.371       .  S
C292        C293   1.406       .  A
C293        H297   1.084       .  S
C293        C294   1.398       .  A
C294        O298   1.371       .  S
O296        H300   0.991       .  S
O298        H299   0.992       .  S
C301        C306   1.402       .  A
C301        C914   1.404       .  A
C302        H307   1.084       .  S
C302        C303   1.401       .  A
C302        C913   1.404       .  A
C303        C304   1.408       .  A
C303        O308   1.372       .  S
C304        C305   1.406       .  A
C305        H309   1.083       .  S
C305        C918   1.400       .  A
C306        C917   1.400       .  A
C306        O310   1.371   1_565  S
O308        H312   0.992       .  S
O310        H311   0.992       .  S
C313        C314   1.400       .  A
C313        C318   1.408       .  A
C314        H319   1.084       .  S
C314        C315   1.389       .  A
C315        C316   1.410       .  A
C315        O320   1.371       .  S
C316        C317   1.405       .  A
C317        H321   1.083       .  S
C317        C318   1.405       .  A
C318        O322   1.371       .  S
O320        H324   0.990       .  S
O322        H323   0.992       .  S
C325        C326   1.393       .  A
C325        C330   1.413       .  A
C326        H331   1.084       .  S
C326        C327   1.397       .  A
C327        C328   1.411       .  A
C327        O332   1.365       .  S
C328        C329   1.402       .  A
C329        H333   1.083       .  S
C329        C330   1.407       .  A
C330        O334   1.371       .  S
O332        H336   0.992       .  S
O334        H335   0.992       .  S
C337        C338   1.409       .  A
C337        C342   1.405       .  A
C338        H343   1.083       .  S
C338        C339   1.414       .  A
C339        C340   1.414       .  A
C339        O344   1.370       .  S
C340        C341   1.404       .  A
C341        H345   1.083       .  S
C341        C342   1.393       .  A
C342        O346   1.375   1_554  S
O344        H348   0.992       .  S
O346        H347   0.992       .  S
C349        C350   1.395       .  A
C349        C354   1.405       .  A
C350        H355   1.084       .  S
C350        C351   1.403       .  A
C351        C352   1.417       .  A
C351        O356   1.373       .  S
C352        C353   1.402       .  A
C353        H357   1.083       .  S
C353        C354   1.403       .  A
C354        O358   1.367       .  S
O356        H360   0.992       .  S
O358        H359   0.991       .  S
C361        C362   1.407       .  A
C361        C366   1.402       .  A
C362        H367   1.083       .  S
C362        C363   1.411       .  A
C363        C364   1.413       .  A
C363        O368   1.370       .  S
C364        C365   1.403       .  A
C365        H369   1.082       .  S
C365        C366   1.390       .  A
C366        O370   1.373   1_556  S
O368        H372   0.992       .  S
O370        H371   0.992       .  S
C373        C374   1.395       .  A
C373        C378   1.399       .  A
C374        H379   1.080       .  S
C374        C375   1.398       .  A
C375        C376   1.408       .  A
C375        O380   1.367       .  S
C376        C377   1.412       .  A
C377        H993   1.079       .  S
C377        C378   1.401       .  A
C378        O994   1.371       .  S
O380        H384   0.992       .  S
H381        C989   1.079       .  S
O382        C990   1.371       .  S
O382        H383   0.992       .  S
C385        C386   1.408       .  A
C385        C390   1.399       .  A
C386       H1003   1.082       .  S
C386        C387   1.409       .  A
C387        C388   1.407       .  A
C387       O1004   1.371       .  S
C388        C389   1.403       .  A
C389        H393   1.078       .  S
C389        C390   1.388       .  A
C390        O394   1.371       .  S
H391        C998   1.082       .  S
O392        C999   1.371       .  S
O392        H396   0.992       .  S
O394        H395   0.991       .  S
C397        C724   1.486   1_556  S
C397        C398   1.410   1_545  A
C397        C402   1.402       .  A
C398        H403   1.084       .  S
C398        C399   1.408       .  A
C399        C400   1.404   1_565  A
C399        O404   1.370       .  S
C400        C401   1.401       .  A
C401        H405   1.073       .  S
C401        C402   1.393       .  A
C402        O406   1.373       .  S
O404        H408   0.992       .  S
O406        H407   0.992       .  S
C409        C723   1.493   1_546  S
C409        C410   1.411   1_545  A
C409        C414   1.401       .  A
C410        H415   1.082       .  S
C410        C411   1.412       .  A
C411        C412   1.408   1_565  A
C411        O416   1.370       .  S
C412        C413   1.402       .  A
C413        H417   1.077       .  S
C413        C414   1.392       .  A
C414        O418   1.369       .  S
O416        H420   0.992       .  S
O418        H419   0.992   1_556  S
C421        C422   1.402       .  A
C421        C426   1.412       .  A
C422        H427   1.084       .  S
C422        C423   1.396       .  A
C423       C1036   1.412       .  A
C423       O1040   1.372       .  S
C424       C1035   1.412       .  A
C424       C1037   1.406       .  A
C425       H1041   1.083       .  S
C425        C426   1.408       .  A
C425       C1036   1.406       .  A
C426        O430   1.371       .  S
O428       C1035   1.372   1_545  S
O428       H1044   0.992       .  S
H429       C1037   1.083       .  S
O430        H431   0.991       .  S
H432       O1040   0.992       .  S
C433        C434   1.406       .  A
C433        C438   1.401       .  A
C434        H439   1.084       .  S
C434        C435   1.406       .  A
C435        C436   1.409       .  A
C435        O440   1.371       .  S
C436        C437   1.409       .  A
C437        H441   1.083       .  S
C437        C438   1.400       .  A
C438        O442   1.371       .  S
O440        H444   0.992       .  S
O442        H443   0.992       .  S
C445        C446   1.405       .  A
C445        C450   1.408       .  A
C446        H451   1.084       .  S
C446        C447   1.400       .  A
C447       C1060   1.403       .  A
C447       O1064   1.371       .  S
C448        C449   1.405       .  A
C448       C1059   1.403       .  A
C449        H453   1.084       .  S
C449       C1062   1.401       .  A
C450       C1061   1.401       .  A
C450        O454   1.371       .  S
O452       C1059   1.371   1_545  S
O452       H1068   0.992   1_545  S
O454        H455   0.992       .  S
H456       O1064   0.992       .  S
C457        C458   1.401       .  A
C457        C462   1.407       .  A
C458        H463   1.084       .  S
C458        C459   1.391       .  A
C459        C460   1.408       .  A
C459        O464   1.372       .  S
C460        C461   1.404       .  A
C461        H465   1.083       .  S
C461        C462   1.402       .  A
C462        O466   1.371       .  S
O464        H468   0.991       .  S
O466        H467   0.992       .  S
C469       C1082   1.403       .  A
C469       C1086   1.410       .  A
C470       H1087   1.084   1_545  S
C470        C471   1.398       .  A
C470       C1081   1.403       .  A
C471        C472   1.409       .  A
C471        O476   1.372       .  S
C472        C473   1.406       .  A
C473        H477   1.083       .  S
C473        C474   1.409       .  A
C474       C1081   1.410       .  A
C474       O1090   1.371       .  S
H475       C1082   1.084       .  S
O476        H480   0.992       .  S
O478       C1086   1.371       .  S
O478       H1091   0.992       .  S
H479       O1090   0.992       .  S
C481        C482   1.404       .  A
C481        C486   1.401       .  A
C482        H487   1.084       .  S
C482        C483   1.403       .  A
C483        C484   1.409       .  A
C483        O488   1.372       .  S
C484        C485   1.408       .  A
C485        H489   1.084       .  S
C485        C486   1.399       .  A
C486        O490   1.371       .  S
O488        H492   0.992       .  S
O490        H491   0.992       .  S
C493        C494   1.406       .  A
C493        C498   1.407       .  A
C494        H499   1.084       .  S
C494        C495   1.396       .  A
C495       C1108   1.400       .  A
C495       O1112   1.371   1_545  S
C496        C497   1.404       .  A
C496       C1107   1.400       .  A
C497        H501   1.084       .  S
C497       C1110   1.399       .  A
C498       C1109   1.399       .  A
C498        O502   1.371       .  S
O500       C1107   1.371       .  S
O500       H1116   0.992       .  S
O502        H503   0.992       .  S
H504       O1112   0.992       .  S
C505        C506   1.405       .  A
C505        C510   1.411       .  A
C506        H511   1.083       .  S
C506        C507   1.407       .  A
C507        C508   1.410       .  A
C507        O512   1.371       .  S
C508        C509   1.402       .  A
C509        H513   1.083       .  S
C509        C510   1.394       .  A
C510        O514   1.372       .  S
O512        H516   0.991       .  S
O514        H515   0.991       .  S
C517        C518   1.397       .  A
C517        C522   1.410       .  A
C518        H523   1.084       .  S
C518        C519   1.396       .  A
C519        C520   1.410       .  A
C519        O524   1.372       .  S
C520        C521   1.398       .  A
C521        H525   1.084       .  S
C521        C522   1.401       .  A
C522        O526   1.371       .  S
O524        H528   0.989       .  S
O526        H527   0.991       .  S
C529        C530   1.391       .  A
C529        C534   1.413       .  A
C530        H535   1.084       .  S
C530        C531   1.390       .  A
C531        C532   1.409       .  A
C531        O536   1.362       .  S
C532        C533   1.404       .  A
C533        H537   1.083       .  S
C533        C534   1.409       .  A
C534        O538   1.370       .  S
O536        H540   0.988       .  S
O538        H539   0.991       .  S
C541        C542   1.398       .  A
C541        C546   1.412       .  A
C542        H547   1.084       .  S
C542        C543   1.398       .  A
C543        C544   1.413       .  A
C543        O548   1.371       .  S
C544        C545   1.398       .  A
C545        H549   1.083       .  S
C545        C546   1.403       .  A
C546        O550   1.373       .  S
O548        H552   0.991       .  S
O550        H551   0.992       .  S
C553        C554   1.390       .  A
C553        C558   1.415       .  A
C554        H559   1.081       .  S
C554        C555   1.380       .  A
C555        C556   1.419       .  A
C555        O560   1.371       .  S
C556        C557   1.407       .  A
C557        H561   1.083       .  S
C557        C558   1.416       .  A
C558        O562   1.370       .  S
O560        H564   0.992       .  S
O562        H563   0.992       .  S
C565        C566   1.395       .  A
C565        C570   1.412       .  A
C566       H1183   1.084       .  S
C566        C567   1.388       .  A
C567        C568   1.418       .  A
C567       O1184   1.370       .  S
C568        C569   1.406       .  A
C569        H573   1.083   1_545  S
C569        C570   1.412       .  A
C570        O574   1.369   1_545  S
H571       C1178   1.084       .  S
O572       C1179   1.370       .  S
O572        H576   0.992       .  S
O574        H575   0.992       .  S
C577        C578   1.406   1_545  A
C577        C582   1.414       .  A
C578        H583   1.083       .  S
C578        C579   1.417       .  A
C579        C580   1.417   1_565  A
C579       O1196   1.374       .  S
C580        C614   1.484   1_545  S
C580        C581   1.386       .  A
C581        H585   1.078       .  S
C581        C582   1.383       .  A
C582        O586   1.369       .  S
O584       C1191   1.374       .  S
O584        H588   0.992       .  S
O586        H587   0.992       .  S
C589        C590   1.404       .  A
C589        C594   1.421       .  A
C590        H595   1.083       .  S
C590        C591   1.407       .  A
C591        C592   1.411       .  A
C591        O596   1.370       .  S
C592        C613   1.482       .  S
C592        C593   1.390       .  A
C593        H597   1.085       .  S
C593        C594   1.385       .  A
C594        O598   1.370       .  S
O596        H600   0.992       .  S
O598        H599   0.992       .  S
C601        C602   1.394       .  A
C601        C606   1.411       .  A
C602       H1219   1.083       .  S
C602        C603   1.405       .  A
C603        C604   1.418       .  A
C603       O1220   1.375       .  S
C604        C605   1.395       .  A
C605        H609   1.084       .  S
C605        C606   1.395       .  A
C606        O610   1.368       .  S
H607       C1214   1.083       .  S
O608       C1215   1.375       .  S
O608        H612   0.993       .  S
O610        H611   0.991       .  S
C613       C1177   1.490       .  S
C613       C1226   1.350   1_455  D
C614       C1216   1.489       .  S
C614       C1225   1.350       .  D
C615       C1141   1.487       .  S
C615       C1165   1.487       .  S
C615       C1840   1.349       .  D
C616       C1129   1.481       .  S
C616       C1153   1.483       .  S
C616       C1839   1.349   1_455  D
C617        N635   1.356       .  A
C617        C654   1.444       .  S
C617       C1213   1.476       .  S
N618        N635   1.332       .  A
N618        N640   1.317       .  A
N618       Co655   2.103       .  S
C619        N644   1.352       .  A
C619        C657   1.469       .  S
C619        H664   1.081       .  S
H620        C661   1.081       .  S
C621        N645   1.339       .  A
C621        C625   1.466       .  S
C621        H650   1.082       .  S
Co622       N640   2.055       .  S
Co622       N630   2.034       .  S
Co622       N662   2.020       .  S
Co622       N638   2.057       .  S
Co622      Cl666   2.427       .  S
N623        C661   1.360       .  A
N623        N630   1.314       .  A
N623       Co624   2.118       .  S
Co624       N627   2.080       .  S
Co624       N644   2.107       .  S
Co624       N631   2.081       .  S
Co624      Cl666   2.468       .  S
C625        N663   1.350       .  A
C625       C1117   1.480       .  S
N626        N633   1.320       .  A
N626        N656   1.323       .  A
N626       Co659   2.089       .  S
N627        N645   1.322       .  A
N627        N663   1.325       .  A
N628        C657   1.339       .  A
N628        N638   1.317       .  A
H629        C654   1.074       .  S
N630        N651   1.308       .  A
N631        N649   1.322       .  A
N631        N636   1.322       .  A
C632        N636   1.347       .  A
C632        C660   1.463       .  S
C632       C1093   1.470       .  S
N633        C648   1.336       .  A
N633       Co655   2.070       .  S
C634        N662   1.317       .  A
C634        C637   1.443       .  S
C634        H668   1.074       .  S
C637        N658   1.367       .  A
C637       C1201   1.487       .  S
N638        N644   1.318       .  A
N639        C665   1.343       .  A
N639        N641   1.323       .  A
N639       Co655   2.083       .  S
N640        C654   1.328       .  A
N641        N669   1.325       .  A
N641       Co659   2.107       .  S
H642        C665   1.082   1_545  S
H643        C660   1.082       .  S
N645       Co659   2.099       .  S
N646        N658   1.335       .  A
N646        N662   1.312       .  A
N646       Co655   2.117       .  S
C647        N651   1.334       .  A
C647        C661   1.484       .  S
C647       C1168   1.491       .  S
C648        C667   1.455       .  S
C648        H652   1.082   1_565  S
N649        C660   1.342       .  A
N649       Co659   2.092       .  S
C653        N669   1.354       .  A
C653        C665   1.462       .  S
C653       C1081   1.485   1_565  S
Co655      Cl666   2.466       .  S
N656        C667   1.351       .  A
C657       C1156   1.474       .  S
Co659      Cl666   2.427       .  S
C667       C1108   1.464   1_565  S
C670        N688   1.366       .  A
C670        C707   1.450       .  S
C670       C1189   1.494       .  S
N671        N688   1.336       .  A
N671        N693   1.315       .  A
N671       Co708   2.127       .  S
C672        N697   1.349       .  A
C672        C710   1.465       .  S
C672        H717   1.081       .  S
H673        C714   1.081       .  S
C674        N698   1.339       .  A
C674        C678   1.468       .  S
C674        H703   1.082       .  S
Co675       N693   2.036       .  S
Co675       N683   2.072       .  S
Co675       N715   2.045       .  S
Co675       N691   2.054       .  S
Co675      Cl719   2.423       .  S
N676        C714   1.350       .  A
N676        N683   1.315       .  A
N676       Co677   2.086       .  S
Co677       N680   2.059       .  S
Co677       N697   2.089       .  S
Co677       N684   2.074       .  S
Co677      Cl719   2.465       .  S
C678        N716   1.344       .  A
C678       C1069   1.467       .  S
N679        N686   1.323       .  A
N679        N709   1.324       .  A
N679       Co712   2.096       .  S
N680        N698   1.319       .  A
N680        N716   1.320       .  A
N681        C710   1.339       .  A
N681        N691   1.316       .  A
H682        C707   1.075       .  S
N683        N704   1.318       .  A
N684        N702   1.322       .  A
N684        N689   1.322       .  A
C685        N689   1.345       .  A
C685        C713   1.466       .  S
C685       C1045   1.475       .  S
N686        C701   1.341       .  A
N686       Co708   2.089       .  S
C687        N715   1.323       .  A
C687        C690   1.448       .  S
C687        H721   1.076       .  S
C690        N711   1.366       .  A
C690       C1180   1.493       .  S
N691        N697   1.316       .  A
N692        C718   1.346       .  A
N692        N694   1.324       .  A
N692       Co708   2.096       .  S
N693        C707   1.319       .  A
N694        N722   1.322       .  A
N694       Co712   2.094       .  S
H695        C718   1.082       .  S
H696        C713   1.082       .  S
N698       Co712   2.091       .  S
N699        N711   1.335       .  A
N699        N715   1.317       .  A
N699       Co708   2.126       .  S
C700        N704   1.347       .  A
C700        C714   1.465       .  S
C700       C1144   1.484       .  S
C701        C720   1.462       .  S
C701        H705   1.082       .  S
N702        C713   1.345       .  A
N702       Co712   2.104       .  S
C706        N722   1.350       .  A
C706        C718   1.465       .  S
C706       C1036   1.487       .  S
Co708      Cl719   2.479       .  S
N709        C720   1.350       .  A
C710       C1132   1.467       .  S
Co712      Cl719   2.427       .  S
C720       C1060   1.472       .  S
C723        C997   1.482       .  S
C723        C724   1.360   1_565  D
C724        C988   1.497   1_545  S
C725        C949   1.497   1_556  S
C725        C973   1.488       .  S
C725        C726   1.359       .  D
C726        C937   1.487   1_556  S
C726        C964   1.497       .  S
C727        N745   1.358       .  A
C727        C764   1.453       .  S
C727       C1024   1.489       .  S
N728        N745   1.334       .  A
N728        N750   1.319       .  A
N728       Co765   2.112       .  S
C729        N754   1.348       .  A
C729        C767   1.463       .  S
C729        H774   1.081       .  S
H730        C771   1.080       .  S
C731        N755   1.338       .  A
C731        C735   1.467       .  S
C731        H760   1.082       .  S
Co732       N750   2.068       .  S
Co732       N740   2.072       .  S
Co732      N1996   2.050       .  S
Co732      N1972   2.080       .  S
Co732      Cl776   2.440       .  S
N733        C771   1.350       .  A
N733        N740   1.315       .  A
N733       Co734   2.084       .  S
Co734       N737   2.069       .  S
Co734      N1978   2.095       .  S
Co734      N1965   2.072       .  S
Co734      Cl776   2.459       .  S
C735        N773   1.347       .  A
C735        C925   1.469       .  S
N736        N743   1.320       .  A
N736        N766   1.324       .  A
N736       Co769   2.089       .  S
N737        N755   1.319       .  A
N737        N773   1.322       .  A
N738        C767   1.347       .  A
N738        N748   1.323       .  A
H739        C764   1.080       .  S
N740        N761   1.317       .  A
N741        N759   1.322       .  A
N741        N746   1.322       .  A
N741      Co1958   2.072   1_455  S
C742        N746   1.345       .  A
C742        C770   1.465       .  S
C742        C901   1.469       .  S
N743        C758   1.338       .  A
N743       Co765   2.078       .  S
C744        N772   1.327       .  A
C744        C747   1.447       .  S
C744        H778   1.081       .  S
C747        N768   1.359       .  A
C747       C1012   1.479       .  S
N748        N754   1.318       .  A
N748      Co1956   2.080   1_455  S
N749        C775   1.344       .  A
N749        N751   1.324       .  A
N749      Co1989   2.094   1_455  S
N750        C764   1.331       .  A
N751        N779   1.326       .  A
N751      Co1993   2.106   1_455  S
H752        C775   1.081       .  S
H753        C770   1.082       .  S
N754      Co1958   2.095   1_455  S
N755       Co769   2.092       .  S
N756        N768   1.334       .  A
N756        N772   1.318       .  A
N756      Co1989   2.114   1_455  S
C757        N761   1.346       .  A
C757        C771   1.469       .  S
C757        C976   1.487       .  S
C758        C777   1.460       .  S
C758        H762   1.082       .  S
N759        C770   1.344       .  A
N759      Co1993   2.100   1_455  S
C763        N779   1.354       .  A
C763        C775   1.464       .  S
C763        C889   1.490       .  S
Co765      N1973   2.094       .  S
Co765      N1980   2.114       .  S
Co765      Cl776   2.461       .  S
N766        C777   1.351       .  A
C767        C961   1.475       .  S
Co769      N1975   2.106       .  S
Co769      N1983   2.100       .  S
Co769      Cl776   2.439       .  S
N772      Co1956   2.050   1_455  S
C777        C913   1.469       .  S
C780        C904   1.487       .  S
C780       C1048   1.496       .  S
C780        C781   1.372       .  D
C781        C892   1.506       .  S
C781       C1033   1.497       .  S
C782        C928   1.487       .  S
C782       C1072   1.484       .  S
C782        C783   1.362       .  D
C783        C916   1.488       .  S
C783       C1057   1.489       .  S
C784        C868   1.493       .  S
C784       C1084   1.498       .  S
C784        C785   1.371       .  D
C785        C877   1.498       .  S
C785       C1096   1.493       .  S
C786        C841   1.491       .  S
C786       C1105   1.484       .  S
C786        C787   1.363       .  D
C787        C853   1.482       .  S
C787       C1120   1.493       .  S
C788        N806   1.357       .  A
C788        C825   1.449       .  S
C788       C1000   1.480       .  S
N789        N806   1.332       .  A
N789        N811   1.317       .  A
N789       Co826   2.098       .  S
C790        N815   1.353       .  A
C790        C828   1.472       .  S
C790        H835   1.081       .  S
H791        C832   1.081       .  S
C792        N816   1.336       .  A
C792        C796   1.462       .  S
C792        H821   1.082       .  S
Co793       N811   2.056       .  S
Co793       N801   2.077       .  S
Co793      N2057   2.066       .  S
Co793      N2033   2.064       .  S
Co793      Cl837   2.442       .  S
N794        C832   1.353       .  A
N794        N801   1.317       .  A
N794       Co795   2.103       .  S
Co795       N798   2.082       .  S
Co795      N2039   2.115       .  S
Co795      N2026   2.082       .  S
Co795      Cl837   2.464       .  S
C796        N834   1.350       .  A
C796        C856   1.471       .  S
N797        N804   1.319       .  A
N797        N827   1.326       .  A
N797       Co830   2.100       .  S
N798        N816   1.321       .  A
N798        N834   1.324       .  A
N799        C828   1.344       .  A
N799        N809   1.319       .  A
H800        C825   1.080       .  S
N801        N822   1.318       .  A
N802        N820   1.324       .  A
N802        N807   1.324       .  A
N802      Co2019   2.082   1_455  S
C803        N807   1.348       .  A
C803        C831   1.464       .  S
C803        C880   1.477       .  S
N804        C819   1.337       .  A
N804       Co826   2.066       .  S
C805        N833   1.332       .  A
C805        C808   1.451       .  S
C805        H839   1.079       .  S
C808        N829   1.350       .  A
C808        C985   1.467       .  S
N809        N815   1.318       .  A
N809      Co2017   2.064   1_455  S
N810        C836   1.340       .  A
N810        N812   1.321       .  A
N810      Co2050   2.079   1_455  S
N811        C825   1.327       .  A
N812        N840   1.324       .  A
N812      Co2054   2.097   1_455  S
H813        C836   1.082   1_545  S
H814        C831   1.082       .  S
N815      Co2019   2.115   1_455  S
N816       Co830   2.082       .  S
N817        N829   1.329       .  A
N817        N833   1.319       .  A
N817      Co2050   2.087   1_455  S
C818        N822   1.346       .  A
C818        C832   1.474       .  S
C818        C952   1.494       .  S
C819        C838   1.456       .  S
C819        H823   1.082   1_565  S
N820        C831   1.344       .  A
N820      Co2054   2.107   1_455  S
C824        N840   1.354       .  A
C824        C836   1.457       .  S
C824        C865   1.480   1_565  S
Co826      N2034   2.079       .  S
Co826      N2041   2.087       .  S
Co826      Cl837   2.456       .  S
N827        C838   1.354       .  A
C828        C940   1.486       .  S
Co830      N2036   2.097       .  S
Co830      N2044   2.107       .  S
Co830      Cl837   2.438       .  S
N833      Co2017   2.066   1_455  S
C838        C844   1.472   1_565  S
C841        C842   1.403       .  A
C841        C846   1.411       .  A
C842        H847   1.084       .  S
C842        C843   1.401       .  A
C843        O848   1.372       .  S
C844        C845   1.398       .  A
C845        H849   1.084   1_545  S
C846        O850   1.372       .  S
O848        H852   0.992       .  S
C853        C854   1.399       .  A
C853        C858   1.409       .  A
C854        H859   1.084       .  S
C854        C855   1.392       .  A
C855        C856   1.409       .  A
C855        O860   1.373       .  S
C856        C857   1.403       .  A
C857        H861   1.083       .  S
C857        C858   1.404       .  A
C858        O862   1.371       .  S
O860        H864   0.992       .  S
O862        H863   0.991       .  S
C865        C866   1.406       .  A
C866        H871   1.083       .  S
C867        C868   1.410       .  A
C867        O872   1.371       .  S
C868        C869   1.404       .  A
C869        H873   1.084       .  S
C869        C870   1.396       .  A
C870        O874   1.372       .  S
O874       H2099   0.992       .  S
H875       O2098   0.992       .  S
C877        C878   1.405       .  A
C877        C882   1.413       .  A
C878        H883   1.083       .  S
C878        C879   1.405       .  A
C879        C880   1.410       .  A
C879        O884   1.371       .  S
C880        C881   1.398       .  A
C881        H885   1.084       .  S
C881        C882   1.402       .  A
C882        O886   1.372       .  S
O884        H888   0.992       .  S
O886        H887   0.992       .  S
C889        C890   1.404       .  A
C890        H895   1.083       .  S
C891        C892   1.411       .  A
C891        O896   1.372       .  S
C892        C893   1.408       .  A
C893        H897   1.083       .  S
C893        C894   1.410       .  A
C894        O898   1.371       .  S
O898        H899   0.992       .  S
C901        C902   1.405       .  A
C901        C906   1.401       .  A
C902        H907   1.084       .  S
C902        C903   1.402       .  A
C903        C904   1.408       .  A
C903        O908   1.371       .  S
C904        C905   1.406       .  A
C905        H909   1.084       .  S
C905        C906   1.398       .  A
C906        O910   1.371       .  S
O908        H912   0.991       .  S
O910        H911   0.992       .  S
C913        C918   1.402       .  A
C914        H919   1.084       .  S
C914        C915   1.401       .  A
C915        C916   1.408       .  A
C915        O920   1.372       .  S
C916        C917   1.406       .  A
C917        H921   1.083       .  S
C918        O922   1.371       .  S
O920        H924   0.992       .  S
O922        H923   0.992       .  S
C925        C926   1.400       .  A
C925        C930   1.408       .  A
C926        H931   1.084       .  S
C926        C927   1.389       .  A
C927        C928   1.410       .  A
C927        O932   1.371       .  S
C928        C929   1.405       .  A
C929        H933   1.083       .  S
C929        C930   1.405       .  A
C930        O934   1.371       .  S
O932        H936   0.990       .  S
O934        H935   0.992       .  S
C937        C938   1.393       .  A
C937        C942   1.413       .  A
C938        H943   1.084       .  S
C938        C939   1.397       .  A
C939        C940   1.411       .  A
C939        O944   1.365       .  S
C940        C941   1.402       .  A
C941        H945   1.083       .  S
C941        C942   1.407       .  A
C942        O946   1.371       .  S
O944        H948   0.992       .  S
O946        H947   0.992       .  S
C949        C950   1.409       .  A
C949        C954   1.405       .  A
C950        H955   1.083       .  S
C950        C951   1.414       .  A
C951        C952   1.414       .  A
C951        O956   1.370       .  S
C952        C953   1.404       .  A
C953        H957   1.083       .  S
C953        C954   1.393       .  A
C954        O958   1.375   1_554  S
O956        H960   0.992       .  S
O958        H959   0.992       .  S
C961        C962   1.395       .  A
C961        C966   1.405       .  A
C962        H967   1.084       .  S
C962        C963   1.403       .  A
C963        C964   1.417       .  A
C963        O968   1.373       .  S
C964        C965   1.402       .  A
C965        H969   1.083       .  S
C965        C966   1.403       .  A
C966        O970   1.367       .  S
O968        H972   0.992       .  S
O970        H971   0.991       .  S
C973        C974   1.407       .  A
C973        C978   1.402       .  A
C974        H979   1.083       .  S
C974        C975   1.411       .  A
C975        C976   1.413       .  A
C975        O980   1.370       .  S
C976        C977   1.403       .  A
C977        H981   1.082       .  S
C977        C978   1.390       .  A
C978        O982   1.373   1_556  S
O980        H984   0.992       .  S
O982        H983   0.992       .  S
C985        C986   1.395       .  A
C985        C990   1.399   1_565  A
C986        H991   1.080       .  S
C986        C987   1.398       .  A
C987        C988   1.408       .  A
C987        O992   1.367       .  S
C988        C989   1.412   1_565  A
C989        C990   1.401       .  A
O992        H996   0.992       .  S
O994        H995   0.992       .  S
C997        C998   1.408   1_565  A
C997       C1002   1.399       .  A
C998        C999   1.409       .  A
C999       C1000   1.407   1_545  A
C1000      C1001   1.403       .  A
C1001      H1005   1.078       .  S
C1001      C1002   1.388       .  A
C1002      O1006   1.371       .  S
O1004      H1008   0.992       .  S
O1006      H1007   0.991       .  S
C1009      C1010   1.410       .  A
C1009      C1014   1.402       .  A
C1010      H1015   1.084       .  S
C1010      C1011   1.408       .  A
C1011      C1012   1.404       .  A
C1011      O1016   1.370       .  S
C1012      C1013   1.401       .  A
C1013      H1017   1.073       .  S
C1013      C1014   1.393       .  A
C1014      O1018   1.373       .  S
O1016      H1020   0.992       .  S
O1018      H1019   0.992       .  S
C1021      C1022   1.411       .  A
C1021      C1026   1.401       .  A
C1022      H1027   1.082       .  S
C1022      C1023   1.412       .  A
C1023      C1024   1.408       .  A
C1023      O1028   1.370       .  S
C1024      C1025   1.402       .  A
C1025      H1029   1.077       .  S
C1025      C1026   1.392       .  A
C1026      O1030   1.369       .  S
O1028      H1032   0.992       .  S
O1030      H1031   0.992   1_556  S
C1033      C1034   1.402       .  A
C1033      C1038   1.412       .  A
C1034      H1039   1.084       .  S
C1034      C1035   1.396       .  A
C1037      C1038   1.408       .  A
C1038      O1042   1.371       .  S
O1042      H1043   0.991       .  S
C1045      C1046   1.406       .  A
C1045      C1050   1.401       .  A
C1046      H1051   1.084       .  S
C1046      C1047   1.406       .  A
C1047      C1048   1.409       .  A
C1047      O1052   1.371       .  S
C1048      C1049   1.409       .  A
C1049      H1053   1.083       .  S
C1049      C1050   1.400       .  A
C1050      O1054   1.371       .  S
O1052      H1056   0.992       .  S
O1054      H1055   0.992       .  S
C1057      C1058   1.405       .  A
C1057      C1062   1.408       .  A
C1058      H1063   1.084       .  S
C1058      C1059   1.400       .  A
C1060      C1061   1.405       .  A
C1061      H1065   1.084       .  S
C1062      O1066   1.371       .  S
O1066      H1067   0.992       .  S
C1069      C1070   1.401       .  A
C1069      C1074   1.407       .  A
C1070      H1075   1.084       .  S
C1070      C1071   1.391       .  A
C1071      C1072   1.408       .  A
C1071      O1076   1.372       .  S
C1072      C1073   1.404       .  A
C1073      H1077   1.083       .  S
C1073      C1074   1.402       .  A
C1074      O1078   1.371       .  S
O1076      H1080   0.991       .  S
O1078      H1079   0.992       .  S
C1082      C1083   1.398       .  A
C1083      C1084   1.409       .  A
C1083      O1088   1.372       .  S
C1084      C1085   1.406       .  A
C1085      H1089   1.083       .  S
C1085      C1086   1.409       .  A
O1088      H1092   0.992       .  S
C1093      C1094   1.404       .  A
C1093      C1098   1.401       .  A
C1094      H1099   1.084       .  S
C1094      C1095   1.403       .  A
C1095      C1096   1.409       .  A
C1095      O1100   1.372       .  S
C1096      C1097   1.408       .  A
C1097      H1101   1.084       .  S
C1097      C1098   1.399       .  A
C1098      O1102   1.371       .  S
O1100      H1104   0.992       .  S
O1102      H1103   0.992       .  S
C1105      C1106   1.406       .  A
C1105      C1110   1.407       .  A
C1106      H1111   1.084       .  S
C1106      C1107   1.396       .  A
C1108      C1109   1.404       .  A
C1109      H1113   1.084       .  S
C1110      O1114   1.371       .  S
O1114      H1115   0.992       .  S
C1117      C1118   1.405       .  A
C1117      C1122   1.411       .  A
C1118      H1123   1.083       .  S
C1118      C1119   1.407       .  A
C1119      C1120   1.410       .  A
C1119      O1124   1.371       .  S
C1120      C1121   1.402       .  A
C1121      H1125   1.083       .  S
C1121      C1122   1.394       .  A
C1122      O1126   1.372       .  S
O1124      H1128   0.991       .  S
O1126      H1127   0.991       .  S
C1129      C1130   1.397       .  A
C1129      C1134   1.410       .  A
C1130      H1135   1.084       .  S
C1130      C1131   1.396       .  A
C1131      C1132   1.410       .  A
C1131      O1136   1.372       .  S
C1132      C1133   1.398       .  A
C1133      H1137   1.084       .  S
C1133      C1134   1.401       .  A
C1134      O1138   1.371       .  S
O1136      H1140   0.989       .  S
O1138      H1139   0.991       .  S
C1141      C1142   1.391       .  A
C1141      C1146   1.413       .  A
C1142      H1147   1.084       .  S
C1142      C1143   1.390       .  A
C1143      C1144   1.409       .  A
C1143      O1148   1.362       .  S
C1144      C1145   1.404       .  A
C1145      H1149   1.083       .  S
C1145      C1146   1.409       .  A
C1146      O1150   1.370       .  S
O1148      H1152   0.988       .  S
O1150      H1151   0.991       .  S
C1153      C1154   1.398       .  A
C1153      C1158   1.412       .  A
C1154      H1159   1.084       .  S
C1154      C1155   1.398       .  A
C1155      C1156   1.413       .  A
C1155      O1160   1.371       .  S
C1156      C1157   1.398       .  A
C1157      H1161   1.083       .  S
C1157      C1158   1.403       .  A
C1158      O1162   1.373       .  S
O1160      H1164   0.991       .  S
O1162      H1163   0.992       .  S
C1165      C1166   1.390       .  A
C1165      C1170   1.415       .  A
C1166      H1171   1.081       .  S
C1166      C1167   1.380       .  A
C1167      C1168   1.419       .  A
C1167      O1172   1.371       .  S
C1168      C1169   1.407       .  A
C1169      H1173   1.083       .  S
C1169      C1170   1.416       .  A
C1170      O1174   1.370       .  S
O1172      H1176   0.992       .  S
O1174      H1175   0.992       .  S
C1177      C1178   1.395       .  A
C1177      C1182   1.412       .  A
C1178      C1179   1.388       .  A
C1179      C1180   1.418       .  A
C1180      C1181   1.406       .  A
C1181      H1185   1.083       .  S
C1181      C1182   1.412       .  A
C1182      O1186   1.369       .  S
O1184      H1188   0.992       .  S
O1186      H1187   0.992       .  S
C1189      C1190   1.406       .  A
C1189      C1194   1.414       .  A
C1190      H1195   1.083       .  S
C1190      C1191   1.417       .  A
C1191      C1192   1.417       .  A
C1192      C1193   1.386       .  A
C1193      H1197   1.078       .  S
C1193      C1194   1.383       .  A
C1194      O1198   1.369       .  S
O1196      H1200   0.992       .  S
O1198      H1199   0.992       .  S
C1201      C1202   1.404       .  A
C1201      C1206   1.421       .  A
C1202      H1207   1.083   1_565  S
C1202      C1203   1.407       .  A
C1203      C1204   1.411       .  A
C1203      O1208   1.370   1_565  S
C1204      C1205   1.390       .  A
C1205      H1209   1.085       .  S
C1205      C1206   1.385       .  A
C1206      O1210   1.370       .  S
O1208      H1212   0.992       .  S
O1210      H1211   0.992       .  S
C1213      C1214   1.394   1_565  A
C1213      C1218   1.411       .  A
C1214      C1215   1.405       .  A
C1215      C1216   1.418   1_545  A
C1216      C1217   1.395       .  A
C1217      H1221   1.084       .  S
C1217      C1218   1.395       .  A
C1218      O1222   1.368       .  S
O1220      H1224   0.993       .  S
O1222      H1223   0.991       .  S
C1225      C1789   1.490   1_565  S
C1225      C2428   1.482       .  S
C1226      C2416   1.484       .  S
C1226      C1828   1.489       .  S
C1227      C1753   1.487       .  S
C1227      C1777   1.487       .  S
C1228      C1741   1.481       .  S
C1228      C1765   1.483       .  S
C1229      N1247   1.356       .  A
C1229      C1266   1.444       .  S
C1229      C1825   1.476       .  S
N1230      N1247   1.332       .  A
N1230      N1252   1.317       .  A
N1230     Co1267   2.103       .  S
C1231      N1256   1.352       .  A
C1231      C1269   1.469       .  S
C1231      H1276   1.081       .  S
H1232      C1273   1.081       .  S
C1233      N1257   1.339       .  A
C1233      C1237   1.466       .  S
C1233      H1262   1.082       .  S
Co1234     N1252   2.055       .  S
Co1234     N1242   2.034       .  S
Co1234     N1274   2.020       .  S
Co1234     N1250   2.057       .  S
Co1234    Cl1278   2.427       .  S
N1235      C1273   1.360       .  A
N1235      N1242   1.314       .  A
N1235     Co1236   2.118       .  S
Co1236     N1239   2.080       .  S
Co1236     N1256   2.107       .  S
Co1236     N1243   2.081       .  S
Co1236    Cl1278   2.468       .  S
C1237      N1275   1.350       .  A
C1237      C1729   1.480       .  S
N1238      N1245   1.320       .  A
N1238      N1268   1.323       .  A
N1238     Co1271   2.089       .  S
N1239      N1257   1.322       .  A
N1239      N1275   1.325       .  A
N1240      C1269   1.339       .  A
N1240      N1250   1.317       .  A
H1241      C1266   1.074       .  S
N1242      N1263   1.308       .  A
N1243      N1261   1.322       .  A
N1243      N1248   1.322       .  A
C1244      N1248   1.347       .  A
C1244      C1272   1.463       .  S
C1244      C1705   1.470       .  S
N1245      C1260   1.336       .  A
N1245     Co1267   2.070       .  S
C1246      N1274   1.317       .  A
C1246      C1249   1.443       .  S
C1246      H1280   1.074       .  S
C1249      N1270   1.367       .  A
C1249      C1813   1.487       .  S
N1250      N1256   1.318       .  A
N1251      C1277   1.343       .  A
N1251      N1253   1.323       .  A
N1251     Co1267   2.083       .  S
N1252      C1266   1.328       .  A
N1253      N1281   1.325       .  A
N1253     Co1271   2.107       .  S
H1254      C1277   1.082       .  S
H1255      C1272   1.082       .  S
N1257     Co1271   2.099       .  S
N1258      N1270   1.335       .  A
N1258      N1274   1.312       .  A
N1258     Co1267   2.117       .  S
C1259      N1263   1.334       .  A
C1259      C1273   1.484       .  S
C1259      C1780   1.491       .  S
C1260      C1279   1.455       .  S
C1260      H1264   1.082       .  S
N1261      C1272   1.342       .  A
N1261     Co1271   2.092       .  S
C1265      N1281   1.354       .  A
C1265      C1277   1.462       .  S
C1265      C1693   1.485       .  S
Co1267    Cl1278   2.466       .  S
N1268      C1279   1.351       .  A
C1269      C1768   1.474       .  S
Co1271    Cl1278   2.427       .  S
C1279      C1720   1.464       .  S
C1282      N1300   1.366       .  A
C1282      C1319   1.450       .  S
C1282      C1801   1.494       .  S
N1283      N1300   1.336       .  A
N1283      N1305   1.315       .  A
N1283     Co1320   2.127       .  S
C1284      N1309   1.349       .  A
C1284      C1322   1.465       .  S
C1284      H1329   1.081       .  S
H1285      C1326   1.081       .  S
C1286      N1310   1.339       .  A
C1286      C1290   1.468       .  S
C1286      H1315   1.082       .  S
Co1287     N1305   2.036       .  S
Co1287     N1295   2.072       .  S
Co1287     N1327   2.045       .  S
Co1287     N1303   2.054       .  S
Co1287    Cl1331   2.423       .  S
N1288      C1326   1.350       .  A
N1288      N1295   1.315       .  A
N1288     Co1289   2.086       .  S
Co1289     N1292   2.059       .  S
Co1289     N1309   2.089       .  S
Co1289     N1296   2.074       .  S
Co1289    Cl1331   2.465       .  S
C1290      N1328   1.344       .  A
C1290      C1681   1.467       .  S
N1291      N1298   1.323       .  A
N1291      N1321   1.324       .  A
N1291     Co1324   2.096       .  S
N1292      N1310   1.319       .  A
N1292      N1328   1.320       .  A
N1293      C1322   1.339       .  A
N1293      N1303   1.316       .  A
H1294      C1319   1.075       .  S
N1295      N1316   1.318       .  A
N1296      N1314   1.322       .  A
N1296      N1301   1.322       .  A
C1297      N1301   1.345       .  A
C1297      C1325   1.466       .  S
C1297      C1657   1.475       .  S
N1298      C1313   1.341       .  A
N1298     Co1320   2.089       .  S
C1299      N1327   1.323       .  A
C1299      C1302   1.448       .  S
C1299      H1333   1.076       .  S
C1302      N1323   1.366       .  A
C1302      C1792   1.493       .  S
N1303      N1309   1.316       .  A
N1304      C1330   1.346       .  A
N1304      N1306   1.324       .  A
N1304     Co1320   2.096       .  S
N1305      C1319   1.319       .  A
N1306      N1334   1.322       .  A
N1306     Co1324   2.094       .  S
H1307      C1330   1.082   1_565  S
H1308      C1325   1.082       .  S
N1310     Co1324   2.091       .  S
N1311      N1323   1.335       .  A
N1311      N1327   1.317       .  A
N1311     Co1320   2.126       .  S
C1312      N1316   1.347       .  A
C1312      C1326   1.465       .  S
C1312      C1756   1.484       .  S
C1313      C1332   1.462       .  S
C1313      H1317   1.082   1_545  S
N1314      C1325   1.345       .  A
N1314     Co1324   2.104       .  S
C1318      N1334   1.350       .  A
C1318      C1330   1.465       .  S
C1318      C1648   1.487   1_545  S
Co1320    Cl1331   2.479       .  S
N1321      C1332   1.350       .  A
C1322      C1744   1.467       .  S
Co1324    Cl1331   2.427       .  S
C1332      C1672   1.472   1_545  S
C1335      C1609   1.482       .  S
C1335      C2245   1.493   1_554  S
C1335      C1336   1.360       .  D
C1336      C1600   1.497       .  S
C1336      C2233   1.486   1_554  S
C1337      C1561   1.497   1_556  S
C1337      C1585   1.488       .  S
C1337      C1338   1.359       .  D
C1338      C1549   1.487   1_556  S
C1338      C1576   1.497       .  S
C1339      N1357   1.358       .  A
C1339      C1376   1.453       .  S
C1339      C1636   1.489       .  S
N1340      N1357   1.334       .  A
N1340      N1362   1.319       .  A
N1340     Co1377   2.112       .  S
C1341      N1366   1.348       .  A
C1341      C1379   1.463       .  S
C1341      H1386   1.081       .  S
H1342      C1383   1.080       .  S
C1343      N1367   1.338       .  A
C1343      C1347   1.467       .  S
C1343      H1372   1.082       .  S
Co1344     N1362   2.068       .  S
Co1344     N1352   2.072       .  S
Co1344    Cl1388   2.440       .  S
N1345      C1383   1.350       .  A
N1345      N1352   1.315       .  A
N1345     Co1346   2.084       .  S
Co1346     N1349   2.069       .  S
Co1346    Cl1388   2.459       .  S
C1347      N1385   1.347       .  A
C1347      C1537   1.469       .  S
N1348      N1355   1.320       .  A
N1348      N1378   1.324       .  A
N1348     Co1381   2.089       .  S
N1349      N1367   1.319       .  A
N1349      N1385   1.322       .  A
N1350      C1379   1.347       .  A
N1350      N1360   1.323       .  A
H1351      C1376   1.080       .  S
N1352      N1373   1.317       .  A
N1353      N1371   1.322       .  A
N1353      N1358   1.322       .  A
C1354      N1358   1.345       .  A
C1354      C1382   1.465       .  S
C1354      C1513   1.469       .  S
N1355      C1370   1.338       .  A
N1355     Co1377   2.078       .  S
C1356      N1384   1.327       .  A
C1356      C1359   1.447       .  S
C1356      H1390   1.081       .  S
C1359      N1380   1.359       .  A
C1359      C1624   1.479       .  S
N1360      N1366   1.318       .  A
N1361      C1387   1.344       .  A
N1361      N1363   1.324       .  A
N1362      C1376   1.331       .  A
N1363      N1391   1.326       .  A
H1364      C1387   1.081   1_565  S
H1365      C1382   1.082       .  S
N1367     Co1381   2.092       .  S
N1368      N1380   1.334       .  A
N1368      N1384   1.318       .  A
C1369      N1373   1.346       .  A
C1369      C1383   1.469       .  S
C1369      C1588   1.487       .  S
C1370      C1389   1.460       .  S
C1370      H1374   1.082   1_545  S
N1371      C1382   1.344       .  A
C1375      N1391   1.354       .  A
C1375      C1387   1.464       .  S
C1375      C1501   1.490   1_545  S
Co1377    Cl1388   2.461       .  S
N1378      C1389   1.351       .  A
C1379      C1573   1.475       .  S
Co1381    Cl1388   2.439       .  S
C1389      C1525   1.469   1_545  S
C1392      C1516   1.487       .  S
C1392      C1660   1.496       .  S
C1392      C1393   1.372       .  D
C1393      C1504   1.506       .  S
C1393      C1645   1.497       .  S
C1394      C1540   1.487       .  S
C1394      C1684   1.484       .  S
C1394      C1395   1.362       .  D
C1395      C1528   1.488       .  S
C1395      C1669   1.489       .  S
C1396      C1480   1.493       .  S
C1396      C1696   1.498       .  S
C1396      C1397   1.371       .  D
C1397      C1489   1.498       .  S
C1397      C1708   1.493       .  S
C1398      C1453   1.491       .  S
C1398      C1717   1.484       .  S
C1398      C1399   1.363       .  D
C1399      C1465   1.482       .  S
C1399      C1732   1.493       .  S
C1400      N1418   1.357       .  A
C1400      C1437   1.449       .  S
C1400      C1612   1.480       .  S
N1401      N1418   1.332       .  A
N1401      N1423   1.317       .  A
N1401     Co1438   2.098       .  S
C1402      N1427   1.353       .  A
C1402      C1440   1.472       .  S
C1402      H1447   1.081       .  S
H1403      C1444   1.081       .  S
C1404      N1428   1.336       .  A
C1404      C1408   1.462       .  S
C1404      H1433   1.082       .  S
Co1405     N1423   2.056       .  S
Co1405     N1413   2.077       .  S
Co1405    Cl1449   2.442       .  S
N1406      C1444   1.353       .  A
N1406      N1413   1.317       .  A
N1406     Co1407   2.103       .  S
Co1407     N1410   2.082       .  S
Co1407    Cl1449   2.464       .  S
C1408      N1446   1.350       .  A
C1408      C1468   1.471       .  S
N1409      N1416   1.319       .  A
N1409      N1439   1.326       .  A
N1409     Co1442   2.100       .  S
N1410      N1428   1.321       .  A
N1410      N1446   1.324       .  A
N1411      C1440   1.344       .  A
N1411      N1421   1.319       .  A
H1412      C1437   1.080       .  S
N1413      N1434   1.318       .  A
N1414      N1432   1.324       .  A
N1414      N1419   1.324       .  A
C1415      N1419   1.348       .  A
C1415      C1443   1.464       .  S
C1415      C1492   1.477       .  S
N1416      C1431   1.337       .  A
N1416     Co1438   2.066       .  S
C1417      N1445   1.332       .  A
C1417      C1420   1.451       .  S
C1417      H1451   1.079       .  S
C1420      N1441   1.350       .  A
C1420      C1597   1.467       .  S
N1421      N1427   1.318       .  A
N1422      C1448   1.340       .  A
N1422      N1424   1.321       .  A
N1423      C1437   1.327       .  A
N1424      N1452   1.324       .  A
H1425      C1448   1.082       .  S
H1426      C1443   1.082       .  S
N1428     Co1442   2.082       .  S
N1429      N1441   1.329       .  A
N1429      N1445   1.319       .  A
C1430      N1434   1.346       .  A
C1430      C1444   1.474       .  S
C1430      C1564   1.494       .  S
C1431      C1450   1.456       .  S
C1431      H1435   1.082       .  S
N1432      C1443   1.344       .  A
C1436      N1452   1.354       .  A
C1436      C1448   1.457       .  S
C1436      C1477   1.480       .  S
Co1438    Cl1449   2.456       .  S
N1439      C1450   1.354       .  A
C1440      C1552   1.486       .  S
Co1442    Cl1449   2.438       .  S
C1450      C1456   1.472       .  S
C1453      C1454   1.403       .  A
C1453      C1458   1.411       .  A
C1454      H1459   1.084       .  S
C1454      C1455   1.401       .  A
C1455      C2068   1.410       .  A
C1455      O1460   1.372       .  S
C1456      C2067   1.410       .  A
C1456      C1457   1.398       .  A
C1457      H1461   1.084       .  S
C1457      C2070   1.401       .  A
C1458      C2069   1.401       .  A
C1458      O1462   1.372       .  S
O1460      H1464   0.992       .  S
O1462      H2075   0.992       .  S
H1463      O2074   0.992       .  S
C1465      C1466   1.399       .  A
C1465      C1470   1.409       .  A
C1466      H1471   1.084       .  S
C1466      C1467   1.392       .  A
C1467      C1468   1.409       .  A
C1467      O1472   1.373       .  S
C1468      C1469   1.403       .  A
C1469      H1473   1.083       .  S
C1469      C1470   1.404       .  A
C1470      O1474   1.371       .  S
O1472      H1476   0.992       .  S
O1474      H1475   0.991       .  S
C1477      C1478   1.406       .  A
C1477      C2094   1.408       .  A
C1478      H1483   1.083       .  S
C1478      C2091   1.406       .  A
C1479      C2090   1.406       .  A
C1479      C1480   1.410       .  A
C1479      O1484   1.371       .  S
C1480      C1481   1.404       .  A
C1481      H1485   1.084       .  S
C1481      C1482   1.396       .  A
C1482      C2089   1.408       .  A
C1482      O1486   1.372   1_545  S
O1484      H2100   0.991       .  S
H1488      O2096   0.991       .  S
C1489      C1490   1.405       .  A
C1489      C1494   1.413       .  A
C1490      H1495   1.083       .  S
C1490      C1491   1.405       .  A
C1491      C1492   1.410       .  A
C1491      O1496   1.371       .  S
C1492      C1493   1.398       .  A
C1493      H1497   1.084       .  S
C1493      C1494   1.402       .  A
C1494      O1498   1.372       .  S
O1496      H1500   0.992       .  S
O1498      H1499   0.992       .  S
C1501      C1502   1.404       .  A
C1501      C2118   1.411       .  A
C1502      H1507   1.083   1_565  S
C1502      C2115   1.401       .  A
C1503      C2114   1.401       .  A
C1503      C1504   1.411       .  A
C1503      O1508   1.372       .  S
C1504      C1505   1.408       .  A
C1505      H1509   1.083       .  S
C1505      C1506   1.410       .  A
C1506      C2113   1.411       .  A
C1506      O1510   1.371       .  S
O1508      H2124   0.992       .  S
O1510      H1511   0.992       .  S
H1512      O2120   0.992       .  S
C1513      C1514   1.405       .  A
C1513      C1518   1.401       .  A
C1514      H1519   1.084       .  S
C1514      C1515   1.402       .  A
C1515      C1516   1.408       .  A
C1515      O1520   1.371       .  S
C1516      C1517   1.406       .  A
C1517      H1521   1.084       .  S
C1517      C1518   1.398       .  A
C1518      O1522   1.371       .  S
O1520      H1524   0.991       .  S
O1522      H1523   0.992       .  S
C1525      C2138   1.404       .  A
C1525      C1530   1.402       .  A
C1526      H1531   1.084       .  S
C1526      C2137   1.404       .  A
C1526      C1527   1.401       .  A
C1527      C1528   1.408       .  A
C1527      O1532   1.372       .  S
C1528      C1529   1.406       .  A
C1529      H1533   1.083       .  S
C1529      C2142   1.400       .  A
C1530      C2141   1.400       .  A
C1530      O1534   1.371   1_565  S
O1532      H1536   0.992       .  S
O1534      H1535   0.992       .  S
C1537      C1538   1.400       .  A
C1537      C1542   1.408       .  A
C1538      H1543   1.084       .  S
C1538      C1539   1.389       .  A
C1539      C1540   1.410       .  A
C1539      O1544   1.371       .  S
C1540      C1541   1.405       .  A
C1541      H1545   1.083       .  S
C1541      C1542   1.405       .  A
C1542      O1546   1.371       .  S
O1544      H1548   0.990       .  S
O1546      H1547   0.992       .  S
C1549      C1550   1.393       .  A
C1549      C1554   1.413       .  A
C1550      H1555   1.084       .  S
C1550      C1551   1.397       .  A
C1551      C1552   1.411       .  A
C1551      O1556   1.365       .  S
C1552      C1553   1.402       .  A
C1553      H1557   1.083       .  S
C1553      C1554   1.407       .  A
C1554      O1558   1.371       .  S
O1556      H1560   0.992       .  S
O1558      H1559   0.992       .  S
C1561      C1562   1.409       .  A
C1561      C1566   1.405       .  A
C1562      H1567   1.083       .  S
C1562      C1563   1.414       .  A
C1563      C1564   1.414       .  A
C1563      O1568   1.370       .  S
C1564      C1565   1.404       .  A
C1565      H1569   1.083       .  S
C1565      C1566   1.393       .  A
C1566      O1570   1.375   1_554  S
O1568      H1572   0.992       .  S
O1570      H1571   0.992       .  S
C1573      C1574   1.395       .  A
C1573      C1578   1.405       .  A
C1574      H1579   1.084       .  S
C1574      C1575   1.403       .  A
C1575      C1576   1.417       .  A
C1575      O1580   1.373       .  S
C1576      C1577   1.402       .  A
C1577      H1581   1.083       .  S
C1577      C1578   1.403       .  A
C1578      O1582   1.367       .  S
O1580      H1584   0.992       .  S
O1582      H1583   0.991       .  S
C1585      C1586   1.407       .  A
C1585      C1590   1.402       .  A
C1586      H1591   1.083       .  S
C1586      C1587   1.411       .  A
C1587      C1588   1.413       .  A
C1587      O1592   1.370       .  S
C1588      C1589   1.403       .  A
C1589      H1593   1.082       .  S
C1589      C1590   1.390       .  A
C1590      O1594   1.373   1_556  S
O1592      H1596   0.992       .  S
O1594      H1595   0.992       .  S
C1597      C1598   1.395       .  A
C1597      C1602   1.399       .  A
C1598      H1603   1.080       .  S
C1598      C1599   1.398       .  A
C1599      C1600   1.408       .  A
C1599      O1604   1.367       .  S
C1600      C1601   1.412       .  A
C1601      H2217   1.079       .  S
C1601      C1602   1.401       .  A
C1602      O2218   1.371       .  S
O1604      H1608   0.992       .  S
H1605      C2213   1.079       .  S
O1606      C2214   1.371       .  S
O1606      H1607   0.992       .  S
C1609      C1610   1.408       .  A
C1609      C1614   1.399       .  A
C1610      H2227   1.082       .  S
C1610      C1611   1.409       .  A
C1611      C1612   1.407       .  A
C1611      O2228   1.371       .  S
C1612      C1613   1.403       .  A
C1613      H1617   1.078       .  S
C1613      C1614   1.388       .  A
C1614      O1618   1.371       .  S
H1615      C2222   1.082       .  S
O1616      C2223   1.371       .  S
O1616      H1620   0.992       .  S
O1618      H1619   0.991       .  S
C1621      C1948   1.486   1_556  S
C1621      C1622   1.410   1_545  A
C1621      C1626   1.402       .  A
C1622      H1627   1.084       .  S
C1622      C1623   1.408       .  A
C1623      C1624   1.404   1_565  A
C1623      O1628   1.370       .  S
C1624      C1625   1.401       .  A
C1625      H1629   1.073       .  S
C1625      C1626   1.393       .  A
C1626      O1630   1.373       .  S
O1628      H1632   0.992       .  S
O1630      H1631   0.992       .  S
C1633      C1947   1.493   1_546  S
C1633      C1634   1.411   1_545  A
C1633      C1638   1.401       .  A
C1634      H1639   1.082       .  S
C1634      C1635   1.412       .  A
C1635      C1636   1.408   1_565  A
C1635      O1640   1.370       .  S
C1636      C1637   1.402       .  A
C1637      H1641   1.077       .  S
C1637      C1638   1.392       .  A
C1638      O1642   1.369       .  S
O1640      H1644   0.992       .  S
O1642      H1643   0.992   1_556  S
C1645      C1646   1.402       .  A
C1645      C1650   1.412       .  A
C1646      H1651   1.084       .  S
C1646      C1647   1.396       .  A
C1647      C2260   1.412       .  A
C1647      O2264   1.372       .  S
C1648      C2259   1.412       .  A
C1648      C2261   1.406       .  A
C1649      H2265   1.083       .  S
C1649      C2260   1.406       .  A
C1649      C1650   1.408       .  A
C1650      O1654   1.371       .  S
O1652      C2259   1.372   1_545  S
O1652      H2268   0.992       .  S
H1653      C2261   1.083       .  S
O1654      H1655   0.991       .  S
H1656      O2264   0.992       .  S
C1657      C1658   1.406       .  A
C1657      C1662   1.401       .  A
C1658      H1663   1.084       .  S
C1658      C1659   1.406       .  A
C1659      C1660   1.409       .  A
C1659      O1664   1.371       .  S
C1660      C1661   1.409       .  A
C1661      H1665   1.083       .  S
C1661      C1662   1.400       .  A
C1662      O1666   1.371       .  S
O1664      H1668   0.992       .  S
O1666      H1667   0.992       .  S
C1669      C1670   1.405       .  A
C1669      C1674   1.408       .  A
C1670      H1675   1.084       .  S
C1670      C1671   1.400       .  A
C1671      C2284   1.403       .  A
C1671      O2288   1.371       .  S
C1672      C2283   1.403       .  A
C1672      C1673   1.405       .  A
C1673      H1677   1.084       .  S
C1673      C2286   1.401       .  A
C1674      C2285   1.401       .  A
C1674      O1678   1.371       .  S
O1676      C2283   1.371   1_545  S
O1676      H2292   0.992   1_545  S
O1678      H1679   0.992       .  S
H1680      O2288   0.992       .  S
C1681      C1682   1.401       .  A
C1681      C1686   1.407       .  A
C1682      H1687   1.084       .  S
C1682      C1683   1.391       .  A
C1683      C1684   1.408       .  A
C1683      O1688   1.372       .  S
C1684      C1685   1.404       .  A
C1685      H1689   1.083       .  S
C1685      C1686   1.402       .  A
C1686      O1690   1.371       .  S
O1688      H1692   0.991       .  S
O1690      H1691   0.992       .  S
C1693      C2306   1.403       .  A
C1693      C2310   1.410       .  A
C1694      H2311   1.084   1_545  S
C1694      C2305   1.403       .  A
C1694      C1695   1.398       .  A
C1695      C1696   1.409       .  A
C1695      O1700   1.372       .  S
C1696      C1697   1.406       .  A
C1697      H1701   1.083       .  S
C1697      C1698   1.409       .  A
C1698      C2305   1.410       .  A
C1698      O2314   1.371       .  S
H1699      C2306   1.084       .  S
O1700      H1704   0.992       .  S
O1702      C2310   1.371       .  S
O1702      H2315   0.992       .  S
H1703      O2314   0.992       .  S
C1705      C1706   1.404       .  A
C1705      C1710   1.401       .  A
C1706      H1711   1.084       .  S
C1706      C1707   1.403       .  A
C1707      C1708   1.409       .  A
C1707      O1712   1.372       .  S
C1708      C1709   1.408       .  A
C1709      H1713   1.084       .  S
C1709      C1710   1.399       .  A
C1710      O1714   1.371       .  S
O1712      H1716   0.992       .  S
O1714      H1715   0.992       .  S
C1717      C1718   1.406       .  A
C1717      C1722   1.407       .  A
C1718      H1723   1.084       .  S
C1718      C1719   1.396       .  A
C1719      C2332   1.400       .  A
C1719      O2336   1.371   1_545  S
C1720      C2331   1.400       .  A
C1720      C1721   1.404       .  A
C1721      H1725   1.084       .  S
C1721      C2334   1.399       .  A
C1722      C2333   1.399       .  A
C1722      O1726   1.371       .  S
O1724      C2331   1.371       .  S
O1724      H2340   0.992       .  S
O1726      H1727   0.992       .  S
H1728      O2336   0.992       .  S
C1729      C1730   1.405       .  A
C1729      C1734   1.411       .  A
C1730      H1735   1.083       .  S
C1730      C1731   1.407       .  A
C1731      C1732   1.410       .  A
C1731      O1736   1.371       .  S
C1732      C1733   1.402       .  A
C1733      H1737   1.083       .  S
C1733      C1734   1.394       .  A
C1734      O1738   1.372       .  S
O1736      H1740   0.991       .  S
O1738      H1739   0.991       .  S
C1741      C1742   1.397       .  A
C1741      C1746   1.410       .  A
C1742      H1747   1.084       .  S
C1742      C1743   1.396       .  A
C1743      C1744   1.410       .  A
C1743      O1748   1.372       .  S
C1744      C1745   1.398       .  A
C1745      H1749   1.084       .  S
C1745      C1746   1.401       .  A
C1746      O1750   1.371       .  S
O1748      H1752   0.989       .  S
O1750      H1751   0.991       .  S
C1753      C1754   1.391       .  A
C1753      C1758   1.413       .  A
C1754      H1759   1.084       .  S
C1754      C1755   1.390       .  A
C1755      C1756   1.409       .  A
C1755      O1760   1.362       .  S
C1756      C1757   1.404       .  A
C1757      H1761   1.083       .  S
C1757      C1758   1.409       .  A
C1758      O1762   1.370       .  S
O1760      H1764   0.988       .  S
O1762      H1763   0.991       .  S
C1765      C1766   1.398       .  A
C1765      C1770   1.412       .  A
C1766      H1771   1.084       .  S
C1766      C1767   1.398       .  A
C1767      C1768   1.413       .  A
C1767      O1772   1.371       .  S
C1768      C1769   1.398       .  A
C1769      H1773   1.083       .  S
C1769      C1770   1.403       .  A
C1770      O1774   1.373       .  S
O1772      H1776   0.991       .  S
O1774      H1775   0.992       .  S
C1777      C1778   1.390       .  A
C1777      C1782   1.415       .  A
C1778      H1783   1.081       .  S
C1778      C1779   1.380       .  A
C1779      C1780   1.419       .  A
C1779      O1784   1.371       .  S
C1780      C1781   1.407       .  A
C1781      H1785   1.083       .  S
C1781      C1782   1.416       .  A
C1782      O1786   1.370       .  S
O1784      H1788   0.992       .  S
O1786      H1787   0.992       .  S
C1789      C1790   1.395       .  A
C1789      C1794   1.412       .  A
C1790      H2407   1.084       .  S
C1790      C1791   1.388       .  A
C1791      C1792   1.418       .  A
C1791      O2408   1.370       .  S
C1792      C1793   1.406       .  A
C1793      H1797   1.083   1_545  S
C1793      C1794   1.412       .  A
C1794      O1798   1.369   1_545  S
H1795      C2402   1.084       .  S
O1796      C2403   1.370       .  S
O1796      H1800   0.992       .  S
O1798      H1799   0.992       .  S
C1801      C1802   1.406   1_545  A
C1801      C1806   1.414       .  A
C1802      H1807   1.083       .  S
C1802      C1803   1.417       .  A
C1803      C1804   1.417   1_565  A
C1803      O2420   1.374       .  S
C1804      C1838   1.484   1_545  S
C1804      C1805   1.386       .  A
C1805      H1809   1.078       .  S
C1805      C1806   1.383       .  A
C1806      O1810   1.369       .  S
O1808      C2415   1.374       .  S
O1808      H1812   0.992       .  S
O1810      H1811   0.992       .  S
C1813      C1814   1.404       .  A
C1813      C1818   1.421       .  A
C1814      H1819   1.083       .  S
C1814      C1815   1.407       .  A
C1815      C1816   1.411       .  A
C1815      O1820   1.370       .  S
C1816      C1837   1.482       .  S
C1816      C1817   1.390       .  A
C1817      H1821   1.085       .  S
C1817      C1818   1.385       .  A
C1818      O1822   1.370       .  S
O1820      H1824   0.992       .  S
O1822      H1823   0.992       .  S
C1825      C1826   1.394       .  A
C1825      C1830   1.411       .  A
C1826      H2443   1.083       .  S
C1826      C1827   1.405       .  A
C1827      C1828   1.418       .  A
C1827      O2444   1.375       .  S
C1828      C1829   1.395       .  A
C1829      H1833   1.084       .  S
C1829      C1830   1.395       .  A
C1830      O1834   1.368       .  S
H1831      C2438   1.083       .  S
O1832      C2439   1.375       .  S
O1832      H1836   0.993       .  S
O1834      H1835   0.991       .  S
C1837      C2401   1.490       .  S
C1838      C2440   1.489       .  S
C1839      C2365   1.487       .  S
C1839      C2389   1.487       .  S
C1840      C2353   1.481       .  S
C1840      C2377   1.483       .  S
C1841      N1859   1.356       .  A
C1841      C1878   1.444       .  S
C1841      C2437   1.476       .  S
N1842      N1859   1.332       .  A
N1842      N1864   1.317       .  A
N1842     Co1879   2.103       .  S
C1843      N1868   1.352       .  A
C1843      C1881   1.469       .  S
C1843      H1888   1.081       .  S
H1844      C1885   1.081       .  S
C1845      N1869   1.339       .  A
C1845      C1849   1.466       .  S
C1845      H1874   1.082       .  S
Co1846     N1864   2.055       .  S
Co1846     N1854   2.034       .  S
Co1846     N1886   2.020       .  S
Co1846     N1862   2.057       .  S
Co1846    Cl1890   2.427       .  S
N1847      C1885   1.360       .  A
N1847      N1854   1.314       .  A
N1847     Co1848   2.118       .  S
Co1848     N1851   2.080       .  S
Co1848     N1868   2.107       .  S
Co1848     N1855   2.081       .  S
Co1848    Cl1890   2.468       .  S
C1849      N1887   1.350       .  A
C1849      C2341   1.480       .  S
N1850      N1857   1.320       .  A
N1850      N1880   1.323       .  A
N1850     Co1883   2.089       .  S
N1851      N1869   1.322       .  A
N1851      N1887   1.325       .  A
N1852      C1881   1.339       .  A
N1852      N1862   1.317       .  A
H1853      C1878   1.074       .  S
N1854      N1875   1.308       .  A
N1855      N1873   1.322       .  A
N1855      N1860   1.322       .  A
C1856      N1860   1.347       .  A
C1856      C1884   1.463       .  S
C1856      C2317   1.470       .  S
N1857      C1872   1.336       .  A
N1857     Co1879   2.070       .  S
C1858      N1886   1.317       .  A
C1858      C1861   1.443       .  S
C1858      H1892   1.074       .  S
C1861      N1882   1.367       .  A
C1861      C2425   1.487       .  S
N1862      N1868   1.318       .  A
N1863      C1889   1.343       .  A
N1863      N1865   1.323       .  A
N1863     Co1879   2.083       .  S
N1864      C1878   1.328       .  A
N1865      N1893   1.325       .  A
N1865     Co1883   2.107       .  S
H1866      C1889   1.082   1_545  S
H1867      C1884   1.082       .  S
N1869     Co1883   2.099       .  S
N1870      N1882   1.335       .  A
N1870      N1886   1.312       .  A
N1870     Co1879   2.117       .  S
C1871      N1875   1.334       .  A
C1871      C1885   1.484       .  S
C1871      C2392   1.491       .  S
C1872      C1891   1.455       .  S
C1872      H1876   1.082   1_565  S
N1873      C1884   1.342       .  A
N1873     Co1883   2.092       .  S
C1877      N1893   1.354       .  A
C1877      C1889   1.462       .  S
C1877      C2305   1.485   1_565  S
Co1879    Cl1890   2.466       .  S
N1880      C1891   1.351       .  A
C1881      C2380   1.474       .  S
Co1883    Cl1890   2.427       .  S
C1891      C2332   1.464   1_565  S
C1894      N1912   1.366       .  A
C1894      C1931   1.450       .  S
C1894      C2413   1.494       .  S
N1895      N1912   1.336       .  A
N1895      N1917   1.315       .  A
N1895     Co1932   2.127       .  S
C1896      N1921   1.349       .  A
C1896      C1934   1.465       .  S
C1896      H1941   1.081       .  S
H1897      C1938   1.081       .  S
C1898      N1922   1.339       .  A
C1898      C1902   1.468       .  S
C1898      H1927   1.082       .  S
Co1899     N1917   2.036       .  S
Co1899     N1907   2.072       .  S
Co1899     N1939   2.045       .  S
Co1899     N1915   2.054       .  S
Co1899    Cl1943   2.423       .  S
N1900      C1938   1.350       .  A
N1900      N1907   1.315       .  A
N1900     Co1901   2.086       .  S
Co1901     N1904   2.059       .  S
Co1901     N1921   2.089       .  S
Co1901     N1908   2.074       .  S
Co1901    Cl1943   2.465       .  S
C1902      N1940   1.344       .  A
C1902      C2293   1.467       .  S
N1903      N1910   1.323       .  A
N1903      N1933   1.324       .  A
N1903     Co1936   2.096       .  S
N1904      N1922   1.319       .  A
N1904      N1940   1.320       .  A
N1905      C1934   1.339       .  A
N1905      N1915   1.316       .  A
H1906      C1931   1.075       .  S
N1907      N1928   1.318       .  A
N1908      N1926   1.322       .  A
N1908      N1913   1.322       .  A
C1909      N1913   1.345       .  A
C1909      C1937   1.466       .  S
C1909      C2269   1.475       .  S
N1910      C1925   1.341       .  A
N1910     Co1932   2.089       .  S
C1911      N1939   1.323       .  A
C1911      C1914   1.448       .  S
C1911      H1945   1.076       .  S
C1914      N1935   1.366       .  A
C1914      C2404   1.493       .  S
N1915      N1921   1.316       .  A
N1916      C1942   1.346       .  A
N1916      N1918   1.324       .  A
N1916     Co1932   2.096       .  S
N1917      C1931   1.319       .  A
N1918      N1946   1.322       .  A
N1918     Co1936   2.094       .  S
H1919      C1942   1.082       .  S
H1920      C1937   1.082       .  S
N1922     Co1936   2.091       .  S
N1923      N1935   1.335       .  A
N1923      N1939   1.317       .  A
N1923     Co1932   2.126       .  S
C1924      N1928   1.347       .  A
C1924      C1938   1.465       .  S
C1924      C2368   1.484       .  S
C1925      C1944   1.462       .  S
C1925      H1929   1.082       .  S
N1926      C1937   1.345       .  A
N1926     Co1936   2.104       .  S
C1930      N1946   1.350       .  A
C1930      C1942   1.465       .  S
C1930      C2260   1.487       .  S
Co1932    Cl1943   2.479       .  S
N1933      C1944   1.350       .  A
C1934      C2356   1.467       .  S
Co1936    Cl1943   2.427       .  S
C1944      C2284   1.472       .  S
C1947      C2221   1.482       .  S
C1947      C1948   1.360   1_565  D
C1948      C2212   1.497   1_545  S
C1949      C2173   1.497   1_556  S
C1949      C2197   1.488       .  S
C1949      C1950   1.359       .  D
C1950      C2161   1.487   1_556  S
C1950      C2188   1.497       .  S
C1951      N1969   1.358       .  A
C1951      C1988   1.453       .  S
C1951      C2248   1.489       .  S
N1952      N1969   1.334       .  A
N1952      N1974   1.319       .  A
N1952     Co1989   2.112       .  S
C1953      N1978   1.348       .  A
C1953      C1991   1.463       .  S
C1953      H1998   1.081       .  S
H1954      C1995   1.080       .  S
C1955      N1979   1.338       .  A
C1955      C1959   1.467       .  S
C1955      H1984   1.082       .  S
Co1956     N1974   2.068       .  S
Co1956     N1964   2.072       .  S
Co1956    Cl2000   2.440       .  S
N1957      C1995   1.350       .  A
N1957      N1964   1.315       .  A
N1957     Co1958   2.084       .  S
Co1958     N1961   2.069       .  S
Co1958    Cl2000   2.459       .  S
C1959      N1997   1.347       .  A
C1959      C2149   1.469       .  S
N1960      N1967   1.320       .  A
N1960      N1990   1.324       .  A
N1960     Co1993   2.089       .  S
N1961      N1979   1.319       .  A
N1961      N1997   1.322       .  A
N1962      C1991   1.347       .  A
N1962      N1972   1.323       .  A
H1963      C1988   1.080       .  S
N1964      N1985   1.317       .  A
N1965      N1983   1.322       .  A
N1965      N1970   1.322       .  A
C1966      N1970   1.345       .  A
C1966      C1994   1.465       .  S
C1966      C2125   1.469       .  S
N1967      C1982   1.338       .  A
N1967     Co1989   2.078       .  S
C1968      N1996   1.327       .  A
C1968      C1971   1.447       .  S
C1968      H2002   1.081       .  S
C1971      N1992   1.359       .  A
C1971      C2236   1.479       .  S
N1972      N1978   1.318       .  A
N1973      C1999   1.344       .  A
N1973      N1975   1.324       .  A
N1974      C1988   1.331       .  A
N1975      N2003   1.326       .  A
H1976      C1999   1.081       .  S
H1977      C1994   1.082       .  S
N1979     Co1993   2.092       .  S
N1980      N1992   1.334       .  A
N1980      N1996   1.318       .  A
C1981      N1985   1.346       .  A
C1981      C1995   1.469       .  S
C1981      C2200   1.487       .  S
C1982      C2001   1.460       .  S
C1982      H1986   1.082       .  S
N1983      C1994   1.344       .  A
C1987      N2003   1.354       .  A
C1987      C1999   1.464       .  S
C1987      C2113   1.490       .  S
Co1989    Cl2000   2.461       .  S
N1990      C2001   1.351       .  A
C1991      C2185   1.475       .  S
Co1993    Cl2000   2.439       .  S
C2001      C2137   1.469       .  S
C2004      C2128   1.487       .  S
C2004      C2272   1.496       .  S
C2004      C2005   1.372       .  D
C2005      C2116   1.506       .  S
C2005      C2257   1.497       .  S
C2006      C2152   1.487       .  S
C2006      C2296   1.484       .  S
C2006      C2007   1.362       .  D
C2007      C2140   1.488       .  S
C2007      C2281   1.489       .  S
C2008      C2092   1.493       .  S
C2008      C2308   1.498       .  S
C2008      C2009   1.371       .  D
C2009      C2101   1.498       .  S
C2009      C2320   1.493       .  S
C2010      C2065   1.491       .  S
C2010      C2329   1.484       .  S
C2010      C2011   1.363       .  D
C2011      C2077   1.482       .  S
C2011      C2344   1.493       .  S
C2012      N2030   1.357       .  A
C2012      C2049   1.449       .  S
C2012      C2224   1.480       .  S
N2013      N2030   1.332       .  A
N2013      N2035   1.317       .  A
N2013     Co2050   2.098       .  S
C2014      N2039   1.353       .  A
C2014      C2052   1.472       .  S
C2014      H2059   1.081       .  S
H2015      C2056   1.081       .  S
C2016      N2040   1.336       .  A
C2016      C2020   1.462       .  S
C2016      H2045   1.082       .  S
Co2017     N2035   2.056       .  S
Co2017     N2025   2.077       .  S
Co2017    Cl2061   2.442       .  S
N2018      C2056   1.353       .  A
N2018      N2025   1.317       .  A
N2018     Co2019   2.103       .  S
Co2019     N2022   2.082       .  S
Co2019    Cl2061   2.464       .  S
C2020      N2058   1.350       .  A
C2020      C2080   1.471       .  S
N2021      N2028   1.319       .  A
N2021      N2051   1.326       .  A
N2021     Co2054   2.100       .  S
N2022      N2040   1.321       .  A
N2022      N2058   1.324       .  A
N2023      C2052   1.344       .  A
N2023      N2033   1.319       .  A
H2024      C2049   1.080       .  S
N2025      N2046   1.318       .  A
N2026      N2044   1.324       .  A
N2026      N2031   1.324       .  A
C2027      N2031   1.348       .  A
C2027      C2055   1.464       .  S
C2027      C2104   1.477       .  S
N2028      C2043   1.337       .  A
N2028     Co2050   2.066       .  S
C2029      N2057   1.332       .  A
C2029      C2032   1.451       .  S
C2029      H2063   1.079       .  S
C2032      N2053   1.350       .  A
C2032      C2209   1.467       .  S
N2033      N2039   1.318       .  A
N2034      C2060   1.340       .  A
N2034      N2036   1.321       .  A
N2035      C2049   1.327       .  A
N2036      N2064   1.324       .  A
H2037      C2060   1.082   1_545  S
H2038      C2055   1.082       .  S
N2040     Co2054   2.082       .  S
N2041      N2053   1.329       .  A
N2041      N2057   1.319       .  A
C2042      N2046   1.346       .  A
C2042      C2056   1.474       .  S
C2042      C2176   1.494       .  S
C2043      C2062   1.456       .  S
C2043      H2047   1.082   1_565  S
N2044      C2055   1.344       .  A
C2048      N2064   1.354       .  A
C2048      C2060   1.457       .  S
C2048      C2089   1.480   1_565  S
Co2050    Cl2061   2.456       .  S
N2051      C2062   1.354       .  A
C2052      C2164   1.486       .  S
Co2054    Cl2061   2.438       .  S
C2062      C2068   1.472   1_565  S
C2065      C2066   1.403       .  A
C2065      C2070   1.411       .  A
C2066      H2071   1.084       .  S
C2066      C2067   1.401       .  A
C2067      O2072   1.372       .  S
C2068      C2069   1.398       .  A
C2069      H2073   1.084   1_545  S
C2070      O2074   1.372       .  S
O2072      H2076   0.992       .  S
C2077      C2078   1.399       .  A
C2077      C2082   1.409       .  A
C2078      H2083   1.084       .  S
C2078      C2079   1.392       .  A
C2079      C2080   1.409       .  A
C2079      O2084   1.373       .  S
C2080      C2081   1.403       .  A
C2081      H2085   1.083       .  S
C2081      C2082   1.404       .  A
C2082      O2086   1.371       .  S
O2084      H2088   0.992       .  S
O2086      H2087   0.991       .  S
C2089      C2090   1.406       .  A
C2090      H2095   1.083       .  S
C2091      C2092   1.410       .  A
C2091      O2096   1.371       .  S
C2092      C2093   1.404       .  A
C2093      H2097   1.084       .  S
C2093      C2094   1.396       .  A
C2094      O2098   1.372       .  S
C2101      C2102   1.405       .  A
C2101      C2106   1.413       .  A
C2102      H2107   1.083       .  S
C2102      C2103   1.405       .  A
C2103      C2104   1.410       .  A
C2103      O2108   1.371       .  S
C2104      C2105   1.398       .  A
C2105      H2109   1.084       .  S
C2105      C2106   1.402       .  A
C2106      O2110   1.372       .  S
O2108      H2112   0.992       .  S
O2110      H2111   0.992       .  S
C2113      C2114   1.404       .  A
C2114      H2119   1.083       .  S
C2115      C2116   1.411       .  A
C2115      O2120   1.372       .  S
C2116      C2117   1.408       .  A
C2117      H2121   1.083       .  S
C2117      C2118   1.410       .  A
C2118      O2122   1.371       .  S
O2122      H2123   0.992       .  S
C2125      C2126   1.405       .  A
C2125      C2130   1.401       .  A
C2126      H2131   1.084       .  S
C2126      C2127   1.402       .  A
C2127      C2128   1.408       .  A
C2127      O2132   1.371       .  S
C2128      C2129   1.406       .  A
C2129      H2133   1.084       .  S
C2129      C2130   1.398       .  A
C2130      O2134   1.371       .  S
O2132      H2136   0.991       .  S
O2134      H2135   0.992       .  S
C2137      C2142   1.402       .  A
C2138      H2143   1.084       .  S
C2138      C2139   1.401       .  A
C2139      C2140   1.408       .  A
C2139      O2144   1.372       .  S
C2140      C2141   1.406       .  A
C2141      H2145   1.083       .  S
C2142      O2146   1.371       .  S
O2144      H2148   0.992       .  S
O2146      H2147   0.992       .  S
C2149      C2150   1.400       .  A
C2149      C2154   1.408       .  A
C2150      H2155   1.084       .  S
C2150      C2151   1.389       .  A
C2151      C2152   1.410       .  A
C2151      O2156   1.371       .  S
C2152      C2153   1.405       .  A
C2153      H2157   1.083       .  S
C2153      C2154   1.405       .  A
C2154      O2158   1.371       .  S
O2156      H2160   0.990       .  S
O2158      H2159   0.992       .  S
C2161      C2162   1.393       .  A
C2161      C2166   1.413       .  A
C2162      H2167   1.084       .  S
C2162      C2163   1.397       .  A
C2163      C2164   1.411       .  A
C2163      O2168   1.365       .  S
C2164      C2165   1.402       .  A
C2165      H2169   1.083       .  S
C2165      C2166   1.407       .  A
C2166      O2170   1.371       .  S
O2168      H2172   0.992       .  S
O2170      H2171   0.992       .  S
C2173      C2174   1.409       .  A
C2173      C2178   1.405       .  A
C2174      H2179   1.083       .  S
C2174      C2175   1.414       .  A
C2175      C2176   1.414       .  A
C2175      O2180   1.370       .  S
C2176      C2177   1.404       .  A
C2177      H2181   1.083       .  S
C2177      C2178   1.393       .  A
C2178      O2182   1.375   1_554  S
O2180      H2184   0.992       .  S
O2182      H2183   0.992       .  S
C2185      C2186   1.395       .  A
C2185      C2190   1.405       .  A
C2186      H2191   1.084       .  S
C2186      C2187   1.403       .  A
C2187      C2188   1.417       .  A
C2187      O2192   1.373       .  S
C2188      C2189   1.402       .  A
C2189      H2193   1.083       .  S
C2189      C2190   1.403       .  A
C2190      O2194   1.367       .  S
O2192      H2196   0.992       .  S
O2194      H2195   0.991       .  S
C2197      C2198   1.407       .  A
C2197      C2202   1.402       .  A
C2198      H2203   1.083       .  S
C2198      C2199   1.411       .  A
C2199      C2200   1.413       .  A
C2199      O2204   1.370       .  S
C2200      C2201   1.403       .  A
C2201      H2205   1.082       .  S
C2201      C2202   1.390       .  A
C2202      O2206   1.373   1_556  S
O2204      H2208   0.992       .  S
O2206      H2207   0.992       .  S
C2209      C2210   1.395       .  A
C2209      C2214   1.399   1_565  A
C2210      H2215   1.080       .  S
C2210      C2211   1.398       .  A
C2211      C2212   1.408       .  A
C2211      O2216   1.367       .  S
C2212      C2213   1.412   1_565  A
C2213      C2214   1.401       .  A
O2216      H2220   0.992       .  S
O2218      H2219   0.992       .  S
C2221      C2222   1.408   1_565  A
C2221      C2226   1.399       .  A
C2222      C2223   1.409       .  A
C2223      C2224   1.407   1_545  A
C2224      C2225   1.403       .  A
C2225      H2229   1.078       .  S
C2225      C2226   1.388       .  A
C2226      O2230   1.371       .  S
O2228      H2232   0.992       .  S
O2230      H2231   0.991       .  S
C2233      C2234   1.410       .  A
C2233      C2238   1.402       .  A
C2234      H2239   1.084       .  S
C2234      C2235   1.408       .  A
C2235      C2236   1.404       .  A
C2235      O2240   1.370       .  S
C2236      C2237   1.401       .  A
C2237      H2241   1.073       .  S
C2237      C2238   1.393       .  A
C2238      O2242   1.373       .  S
O2240      H2244   0.992       .  S
O2242      H2243   0.992       .  S
C2245      C2246   1.411       .  A
C2245      C2250   1.401       .  A
C2246      H2251   1.082       .  S
C2246      C2247   1.412       .  A
C2247      C2248   1.408       .  A
C2247      O2252   1.370       .  S
C2248      C2249   1.402       .  A
C2249      H2253   1.077       .  S
C2249      C2250   1.392       .  A
C2250      O2254   1.369       .  S
O2252      H2256   0.992       .  S
O2254      H2255   0.992   1_556  S
C2257      C2258   1.402       .  A
C2257      C2262   1.412       .  A
C2258      H2263   1.084       .  S
C2258      C2259   1.396       .  A
C2261      C2262   1.408       .  A
C2262      O2266   1.371       .  S
O2266      H2267   0.991       .  S
C2269      C2270   1.406       .  A
C2269      C2274   1.401       .  A
C2270      H2275   1.084       .  S
C2270      C2271   1.406       .  A
C2271      C2272   1.409       .  A
C2271      O2276   1.371       .  S
C2272      C2273   1.409       .  A
C2273      H2277   1.083       .  S
C2273      C2274   1.400       .  A
C2274      O2278   1.371       .  S
O2276      H2280   0.992       .  S
O2278      H2279   0.992       .  S
C2281      C2282   1.405       .  A
C2281      C2286   1.408       .  A
C2282      H2287   1.084       .  S
C2282      C2283   1.400       .  A
C2284      C2285   1.405       .  A
C2285      H2289   1.084       .  S
C2286      O2290   1.371       .  S
O2290      H2291   0.992       .  S
C2293      C2294   1.401       .  A
C2293      C2298   1.407       .  A
C2294      H2299   1.084       .  S
C2294      C2295   1.391       .  A
C2295      C2296   1.408       .  A
C2295      O2300   1.372       .  S
C2296      C2297   1.404       .  A
C2297      H2301   1.083       .  S
C2297      C2298   1.402       .  A
C2298      O2302   1.371       .  S
O2300      H2304   0.991       .  S
O2302      H2303   0.992       .  S
C2306      C2307   1.398       .  A
C2307      C2308   1.409       .  A
C2307      O2312   1.372       .  S
C2308      C2309   1.406       .  A
C2309      H2313   1.083       .  S
C2309      C2310   1.409       .  A
O2312      H2316   0.992       .  S
C2317      C2318   1.404       .  A
C2317      C2322   1.401       .  A
C2318      H2323   1.084       .  S
C2318      C2319   1.403       .  A
C2319      C2320   1.409       .  A
C2319      O2324   1.372       .  S
C2320      C2321   1.408       .  A
C2321      H2325   1.084       .  S
C2321      C2322   1.399       .  A
C2322      O2326   1.371       .  S
O2324      H2328   0.992       .  S
O2326      H2327   0.992       .  S
C2329      C2330   1.406       .  A
C2329      C2334   1.407       .  A
C2330      H2335   1.084       .  S
C2330      C2331   1.396       .  A
C2332      C2333   1.404       .  A
C2333      H2337   1.084       .  S
C2334      O2338   1.371       .  S
O2338      H2339   0.992       .  S
C2341      C2342   1.405       .  A
C2341      C2346   1.411       .  A
C2342      H2347   1.083       .  S
C2342      C2343   1.407       .  A
C2343      C2344   1.410       .  A
C2343      O2348   1.371       .  S
C2344      C2345   1.402       .  A
C2345      H2349   1.083       .  S
C2345      C2346   1.394       .  A
C2346      O2350   1.372       .  S
O2348      H2352   0.991       .  S
O2350      H2351   0.991       .  S
C2353      C2354   1.397       .  A
C2353      C2358   1.410       .  A
C2354      H2359   1.084       .  S
C2354      C2355   1.396       .  A
C2355      C2356   1.410       .  A
C2355      O2360   1.372       .  S
C2356      C2357   1.398       .  A
C2357      H2361   1.084       .  S
C2357      C2358   1.401       .  A
C2358      O2362   1.371       .  S
O2360      H2364   0.989       .  S
O2362      H2363   0.991       .  S
C2365      C2366   1.391       .  A
C2365      C2370   1.413       .  A
C2366      H2371   1.084       .  S
C2366      C2367   1.390       .  A
C2367      C2368   1.409       .  A
C2367      O2372   1.362       .  S
C2368      C2369   1.404       .  A
C2369      H2373   1.083       .  S
C2369      C2370   1.409       .  A
C2370      O2374   1.370       .  S
O2372      H2376   0.988       .  S
O2374      H2375   0.991       .  S
C2377      C2378   1.398       .  A
C2377      C2382   1.412       .  A
C2378      H2383   1.084       .  S
C2378      C2379   1.398       .  A
C2379      C2380   1.413       .  A
C2379      O2384   1.371       .  S
C2380      C2381   1.398       .  A
C2381      H2385   1.083       .  S
C2381      C2382   1.403       .  A
C2382      O2386   1.373       .  S
O2384      H2388   0.991       .  S
O2386      H2387   0.992       .  S
C2389      C2390   1.390       .  A
C2389      C2394   1.415       .  A
C2390      H2395   1.081       .  S
C2390      C2391   1.380       .  A
C2391      C2392   1.419       .  A
C2391      O2396   1.371       .  S
C2392      C2393   1.407       .  A
C2393      H2397   1.083       .  S
C2393      C2394   1.416       .  A
C2394      O2398   1.370       .  S
O2396      H2400   0.992       .  S
O2398      H2399   0.992       .  S
C2401      C2402   1.395       .  A
C2401      C2406   1.412       .  A
C2402      C2403   1.388       .  A
C2403      C2404   1.418       .  A
C2404      C2405   1.406       .  A
C2405      H2409   1.083       .  S
C2405      C2406   1.412       .  A
C2406      O2410   1.369       .  S
O2408      H2412   0.992       .  S
O2410      H2411   0.992       .  S
C2413      C2414   1.406       .  A
C2413      C2418   1.414       .  A
C2414      H2419   1.083       .  S
C2414      C2415   1.417       .  A
C2415      C2416   1.417       .  A
C2416      C2417   1.386       .  A
C2417      H2421   1.078       .  S
C2417      C2418   1.383       .  A
C2418      O2422   1.369       .  S
O2420      H2424   0.992       .  S
O2422      H2423   0.992       .  S
C2425      C2426   1.404       .  A
C2425      C2430   1.421       .  A
C2426      H2431   1.083   1_565  S
C2426      C2427   1.407       .  A
C2427      C2428   1.411       .  A
C2427      O2432   1.370   1_565  S
C2428      C2429   1.390       .  A
C2429      H2433   1.085       .  S
C2429      C2430   1.385       .  A
C2430      O2434   1.370       .  S
O2432      H2436   0.992       .  S
O2434      H2435   0.992       .  S
C2437      C2438   1.394   1_565  A
C2437      C2442   1.411       .  A
C2438      C2439   1.405       .  A
C2439      C2440   1.418   1_545  A
C2440      C2441   1.395       .  A
C2441      H2445   1.084       .  S
C2441      C2442   1.395       .  A
C2442      O2446   1.368       .  S
O2444      H2448   0.993       .  S
O2446      H2447   0.991       .  S
