geometry optimzed in LAMMPS
_audit_creation_date              2020-11-30 
_audit_creation_method            'lammps2cif' 
_symmetry_space_group_name_H-M    'P1' 
_symmetry_Int_Tables_number       1 
_symmetry_cell_setting            triclinic 
loop_ 
_symmetry_equiv_pos_as_xyz 
  x,y,z 
_cell_length_a                    35.53155161 
_cell_length_b                    36.2872547753908 
_cell_length_c                    28.626986788400146 
_cell_angle_alpha                 90.8674445066719 
_cell_angle_beta                  90.08778090376003 
_cell_angle_gamma                 77.43641878543954 
loop_ 
_atom_site_label 
_atom_site_type_symbol 
_atom_site_fract_x 
_atom_site_fract_y 
_atom_site_fract_z 
_atom_site_charge 
N1          N  0.98249136  0.72648735  0.95738218    -0.02500
C2          C  0.98230562  0.76105418  0.97604441     0.00100
C3          C  0.44891207  0.78635953  0.96387040    -0.22800
C4          C  0.42752768  0.76665339  0.93732864    -0.23000
C5          C  0.44846570  0.72978220  0.93433825     0.00000
H6          H  0.43953523  0.81516753  0.97647376     0.13800
H7          H  0.39861628  0.77756350  0.92470154     0.13900
N8          N  0.05418987  0.23226823  0.03378957    -0.02500
C9          C  0.06088973  0.19968048  0.05829818     0.00100
C10         C  0.09994028  0.18738758  0.06631402    -0.22800
C11         C  0.11785142  0.21319013  0.04670732    -0.23000
C12         C  0.08925978  0.24060990  0.02714194     0.00000
H13         H  0.11367377  0.16339769  0.08685254     0.13800
H14         H  0.14836952  0.21268634  0.04804002     0.13900
O15         O  0.25646871  0.40871528  0.78545948    -0.84300
O16         O  0.20690817  0.43928248  0.85600998    -0.81400
C17         C  0.21906194  0.42416010  0.89436937     0.99100
O18         O  0.24930417  0.43029456  0.91321248    -0.81400
O19         O  0.32344769  0.44132312  0.91596402    -0.84100
C20         C  0.34331468  0.41281827  0.89441391     1.03700
O21         O  0.34017810  0.40936248  0.85059922    -0.76800
O22         O  0.30999182  0.42159204  0.76026293    -0.77000
C23         C  0.28650430  0.40007494  0.76089072     1.03600
O24         O  0.25284491  0.48454508  0.74814542    -0.84300
O25         O  0.20707795  0.51384369  0.82316786    -0.81400
C26         C  0.19981343  0.52516278  0.86473741     0.99100
O27         O  0.21927644  0.50843000  0.89816449    -0.81400
O28         O  0.29330732  0.51988186  0.89133605    -0.84000
C29         C  0.32773992  0.51647341  0.87829565     1.03600
O30         O  0.34489732  0.48683289  0.85723794    -0.76800
O31         O  0.30505353  0.50093804  0.77477641    -0.77000
C32         C  0.27718030  0.50554098  0.74653048     1.03600
Cr33       Cr  0.23409087  0.46161124  0.80561056     1.93700
Cr34       Cr  0.27170015  0.47426701  0.90003221     1.93200
Cr35       Cr  0.32142929  0.45516913  0.81259096     1.39100
O36         O  0.27538518  0.46354411  0.83954707    -1.22100
N37         N  0.31373050  0.68563406  0.46357654    -0.02500
C38         C  0.31730978  0.65394431  0.48950777     0.00100
C39         C  0.35380184  0.63153365  0.48468892    -0.22800
C40         C  0.37366925  0.64994283  0.45530864    -0.23000
C41         C  0.34885343  0.68342541  0.44320756     0.00000
H42         H  0.36528935  0.60540068  0.50247581     0.13800
H43         H  0.40384287  0.64081157  0.44634320     0.13900
N44         N  0.24110237  0.17977173  0.53390678    -0.02500
C45         C  0.23718922  0.21367530  0.55627554     0.00100
C46         C  0.19926693  0.22731603  0.56931928    -0.22800
C47         C  0.17910653  0.20103164  0.55479362    -0.23000
C48         C  0.20533293  0.17199878  0.53320308     0.00000
H49         H  0.18784860  0.25289514  0.58921351     0.13800
H50         H  0.14861314  0.20285589  0.55983649     0.13900
O51         O  0.04792892  0.00030512  0.29244598    -0.84300
O52         O  0.09221053  0.96549057  0.36444251    -0.81400
C53         C  0.07759084  0.98206874  0.40150386     0.99100
O54         O  0.04578376  0.97711449  0.41681961    -0.81400
O55         O  0.47098565  0.96749733  0.41183235    -0.84100
C56         C  0.45253909  0.99644555  0.39084386     1.03700
O57         O  0.45844137  0.00071418  0.34791369    -0.76800
O58         O  0.49480542  0.99086160  0.26058346    -0.77000
C59         C  0.01982872  0.01068308  0.26527362     1.03600
O60         O  0.05048779  0.92771781  0.24741309    -0.84300
O61         O  0.09009354  0.89289297  0.32346594    -0.81400
C62         C  0.09527030  0.88094641  0.36466349     0.99100
O63         O  0.07513447  0.89836537  0.39787348    -0.81400
O64         O  0.50059682  0.88934267  0.38371588    -0.84000
C65         C  0.46691145  0.89360799  0.36758181     1.03600
O66         O  0.45195428  0.92327721  0.34589500    -0.76800
O67         O  0.49650768  0.91127470  0.26601601    -0.77000
C68         C  0.02554580  0.90816691  0.23977420     1.03600
Cr69       Cr  0.06678498  0.94653784  0.30913466     1.93700
Cr70       Cr  0.02309362  0.93388604  0.39803051     1.93200
Cr71       Cr  0.47888256  0.95584211  0.30735838     1.39100
O72         O  0.02311022  0.94555348  0.33831349    -1.22100
C73         C  0.37297904  0.05517078  0.46928404     0.17000
C74         C  0.34490673  0.06792290  0.50372117    -0.32100
C75         C  0.32178797  0.10432822  0.49932435     0.21400
C76         C  0.32666041  0.12725874  0.46245739     0.03600
C77         C  0.35438069  0.11424091  0.42757224    -0.21800
C78         C  0.37726391  0.07760492  0.43172049     0.12700
S79         S  0.40386521  0.01196118  0.46865287    -0.05500
C80         C  0.42236229  0.02365136  0.41661568    -0.08900
C81         C  0.40537713  0.05952461  0.40108250    -0.25500
S82         S  0.29567254  0.17058695  0.46349851    -0.02700
C83         C  0.27564198  0.15728908  0.51354571    -0.16200
C84         C  0.29226119  0.12131950  0.52858572    -0.14200
H85         H  0.34113756  0.05013306  0.53263589     0.21200
H86         H  0.35780958  0.13183688  0.39832229     0.17200
H87         H  0.41314359  0.07168045  0.36912668     0.19700
H88         H  0.28259295  0.10810959  0.55863796     0.13100
C89         C  0.11880647  0.05136401  0.47856003     0.17000
C90         C  0.12497317  0.07775805  0.51225248    -0.32100
C91         C  0.15521515  0.09615124  0.50464625     0.21400
C92         C  0.17879006  0.08838562  0.46562761     0.03600
C93         C  0.17295132  0.06151887  0.43212314    -0.21800
C94         C  0.14228100  0.04342474  0.43941614     0.12700
S95         S  0.08199031  0.02798804  0.48001335    -0.05500
C96         C  0.09809062  0.00733191  0.42709747    -0.08900
C97         C  0.13065597  0.01793458  0.40985899    -0.25500
S98         S  0.21243203  0.11566885  0.46191131    -0.02700
C99         C  0.19423712  0.13790356  0.51335701    -0.16200
C100        C  0.16400875  0.12426139  0.53203990    -0.14200
H101        H  0.10630262  0.08445475  0.54251586     0.21200
H102        H  0.19085701  0.05570595  0.40112355     0.17200
H103        H  0.14445603  0.00830074  0.37681248     0.19700
H104        H  0.14838110  0.13517949  0.56355125     0.13100
C105        C  0.40517127  0.75140607  0.38894942     0.17000
C106        C  0.43551663  0.76720106  0.37349068    -0.32100
C107        C  0.43108903  0.80642345  0.37774892     0.22000
C108        C  0.39729232  0.82915020  0.39497121     0.03600
C109        C  0.36695260  0.81325160  0.41073851    -0.21800
C110        C  0.37195957  0.77375596  0.40798083     0.12700
S111        S  0.40680880  0.70425875  0.39061358    -0.05500
C112        C  0.36292913  0.71408285  0.41932343    -0.08900
C113        C  0.34757530  0.75254831  0.42555891    -0.25500
S114        S  0.39754214  0.87625147  0.39649593    -0.02700
C115        C  0.44416197  0.86488778  0.37551165    -0.16200
C116        C  0.45829005  0.82670949  0.36714038    -0.14200
H117        H  0.46196428  0.74952103  0.36010632     0.21200
H118        H  0.34106089  0.83079485  0.42567805     0.17200
H119        H  0.32157495  0.76452848  0.44491426     0.19700
H120        H  0.48685186  0.81452322  0.35376537     0.13100
C121        C  0.18100024  0.79529457  0.37530254     0.17000
C122        C  0.21399077  0.76642840  0.36810504    -0.32100
C123        C  0.23329188  0.74923298  0.40769944     0.21400
C124        C  0.21994281  0.75968899  0.45252115     0.03600
C125        C  0.18672512  0.78826119  0.45965545    -0.21800
C126        C  0.16782959  0.80594339  0.42010144     0.12700
S127        S  0.15495698  0.82150051  0.33213316    -0.05500
C128        C  0.12620662  0.84745067  0.37489462    -0.08900
C129        C  0.13634779  0.83563100  0.42005566    -0.25500
S130        S  0.24805301  0.73604021  0.49602144    -0.02700
C131        C  0.27849932  0.71243252  0.45335835    -0.16200
C132        C  0.26689001  0.72207742  0.40799094    -0.14200
H133        H  0.22472934  0.75838199  0.33318897     0.21200
H134        H  0.17654202  0.79695322  0.49460018     0.17200
H135        H  0.12213229  0.84884324  0.45140324     0.19700
H136        H  0.28261020  0.71015801  0.37694694     0.13100
C137        C  0.29562115  0.30412145  0.69886971     0.17000
C138        C  0.29229857  0.26737492  0.68675940    -0.32100
C139        C  0.28857699  0.25879145  0.63921660     0.21400
C140        C  0.28944026  0.28522753  0.60504229     0.03600
C141        C  0.29495431  0.32140012  0.61699364    -0.21800
C142        C  0.29734216  0.33041279  0.66470306     0.12700
S143        S  0.29241183  0.32209259  0.75464143    -0.05500
C144        C  0.29343066  0.36545845  0.73180721    -0.08900
C145        C  0.29697108  0.36558364  0.68356050    -0.25500
S146        S  0.27565892  0.27228570  0.55098816    -0.02700
C147        C  0.26809797  0.23107795  0.57468650    -0.16200
C148        C  0.27739604  0.22741375  0.62175044    -0.14200
H149        H  0.28940182  0.24734890  0.71345984     0.21200
H150        H  0.29404152  0.34262004  0.59056834     0.17200
H151        H  0.29637411  0.39065194  0.66324720     0.19700
H152        H  0.27062520  0.20558297  0.64355553     0.13100
C153        C  0.28012721  0.58932941  0.66709459     0.17000
C154        C  0.28956586  0.62097043  0.64652114    -0.32100
C155        C  0.28257026  0.62618281  0.59857031     0.21400
C156        C  0.26596184  0.60150842  0.57240565     0.03600
C157        C  0.25508731  0.57056651  0.59343806    -0.21800
C158        C  0.26304515  0.56475720  0.64127734     0.12700
S159        S  0.29183990  0.57530907  0.72285105    -0.05500
C160        C  0.27378210  0.53567863  0.71161705    -0.08900
C161        C  0.25866995  0.53410750  0.66700013    -0.25500
S162        S  0.26667676  0.60873450  0.51346828    -0.02700
C163        C  0.28994331  0.64508427  0.52405985    -0.16200
C164        C  0.29565499  0.65153001  0.57118865    -0.14200
H165        H  0.30412473  0.63933648  0.66638582     0.21200
H166        H  0.24339200  0.55048074  0.57277071     0.17200
H167        H  0.24715070  0.51083944  0.65335954     0.19700
H168        H  0.31314134  0.67043411  0.58428140     0.13100
C169        C  0.17301618  0.36031735  0.97109598     0.17000
C170        C  0.16461274  0.33719084  0.00633544    -0.32100
C171        C  0.13501872  0.31806316  0.99819123     0.21400
C172        C  0.11397000  0.32199301  0.95709394     0.03600
C173        C  0.12190257  0.34592580  0.92189348    -0.21800
C174        C  0.15216841  0.36474620  0.92979563     0.12700
S175        S  0.20975537  0.38357017  0.97369430    -0.05500
C176        C  0.19732196  0.39972914  0.91839501    -0.08900
C177        C  0.16591239  0.38770011  0.89933299    -0.25500
S178        S  0.08158685  0.29309854  0.95317750    -0.02700
C179        C  0.09746554  0.27537870  0.00707417    -0.16200
C180        C  0.12542558  0.29191817  0.02687347    -0.14200
H181        H  0.18139445  0.33321806  0.03823575     0.21200
H182        H  0.10613707  0.34873895  0.88924150     0.17200
H183        H  0.15425525  0.39480705  0.86482071     0.19700
H184        H  0.13974659  0.28357342  0.05972807     0.13100
C185        C  0.46623214  0.28172104  0.96622183     0.17000
C186        C  0.43900284  0.29448835  0.93113765    -0.32100
C187        C  0.41583670  0.33101158  0.93615261     0.21400
C188        C  0.41900159  0.35340339  0.97502673     0.03600
C189        C  0.44632147  0.34074305  0.00996763    -0.21800
C190        C  0.47010927  0.30462291  0.00439698     0.12700
S191        S  0.49868414  0.23930175  0.96510215    -0.05500
C192        C  0.01803287  0.25290976  0.01602609    -0.08900
C193        C  0.00009141  0.28833098  0.03294982    -0.25500
S194        S  0.38850009  0.39681887  0.97467309    -0.02700
C195        C  0.37194532  0.38530227  0.92089355    -0.16200
C196        C  0.38903850  0.34928188  0.90472708    -0.14200
H197        H  0.43662177  0.27705079  0.90071040     0.21200
H198        H  0.44946730  0.35861979  0.03970515     0.17200
H199        H  0.00949351  0.30190855  0.06340012     0.19700
H200        H  0.38246700  0.33726646  0.87163928     0.13100
C201        C  0.01095422  0.13087416  0.11689561     0.17000
C202        C  0.00201851  0.09611306  0.12829509    -0.32100
C203        C  0.00803469  0.08384198  0.17475475     0.21400
C204        C  0.02185352  0.10549878  0.20827089     0.03600
C205        C  0.52900806  0.14083925  0.19737230    -0.21800
C206        C  0.02345562  0.15283947  0.15104806     0.12700
S207        S  0.01413597  0.14701490  0.06126603    -0.05500
C208        C  0.03267072  0.18352023  0.08440162    -0.08900
C209        C  0.03470621  0.18341882  0.13283276    -0.25500
S210        S  0.53215266  0.08401021  0.26085947    -0.02700
C211        C  0.01696207  0.04553371  0.23819656    -0.16200
C212        C  0.00445546  0.04952011  0.19208420    -0.14200
H213        H  0.99316416  0.07833736  0.10158324     0.21200
H214        H  0.54072950  0.15726640  0.22328649     0.17200
H215        H  0.54905236  0.20173895  0.15314189     0.19700
H216        H  0.99511426  0.02775139  0.17172454     0.13100
C217        C  0.07384316  0.64859415  0.95051036     0.17000
C218        C  0.10698962  0.62029491  0.95849191    -0.32100
C219        C  0.12537878  0.60010541  0.91947376     0.21400
C220        C  0.11155555  0.60787262  0.87456397     0.03600
C221        C  0.07853593  0.63606464  0.86662398    -0.21800
C222        C  0.06007315  0.65600602  0.90549815     0.12700
S223        S  0.04680984  0.67623486  0.99283931    -0.05500
C224        C  0.01650989  0.69732897  0.94920071    -0.08900
C225        C  0.02734567  0.68390609  0.90456981    -0.25500
S226        S  0.13756167  0.58010561  0.83192088    -0.02700
C227        C  0.16746850  0.55745523  0.87491497    -0.16200
C228        C  0.15749156  0.57115168  0.91988045    -0.14200
H229        H  0.11782949  0.61411099  0.99355458     0.21200
H230        H  0.06750084  0.64203153  0.83159801     0.17200
H231        H  0.01180544  0.69403119  0.87306691     0.19700
H232        H  0.17269417  0.56020775  0.95128780     0.13100
C233        C  0.39477962  0.58306143  0.90647625     0.17000
C234        C  0.42487409  0.59980715  0.92124476    -0.32100
C235        C  0.42077424  0.63858053  0.91372101     0.21400
C236        C  0.38871577  0.65947106  0.89137173     0.03600
C237        C  0.35848928  0.64282758  0.87692285    -0.21800
C238        C  0.36202364  0.60434441  0.88570393     0.12700
S239        S  0.39417971  0.53645998  0.91229924    -0.05500
C240        C  0.34874886  0.54618501  0.88819497    -0.08900
C241        C  0.33519378  0.58337507  0.87567780    -0.25500
S242        S  0.38867295  0.70620847  0.88680331    -0.02700
C243        C  0.43184417  0.69805337  0.91671665    -0.16200
C244        C  0.44546447  0.66050866  0.92865152    -0.14200
H245        H  0.45001894  0.58350556  0.93851257     0.21200
H246        H  0.33300839  0.65930987  0.86051692     0.17200
H247        H  0.30770822  0.59416891  0.85906026     0.19700
H248        H  0.47069859  0.64983059  0.94948462     0.13100
C249        C  0.51444466  0.78825540  0.09457030     0.17000
C250        C  0.51151371  0.79851619  0.14201344    -0.32100
C251        C  0.02246905  0.83196767  0.15544407     0.21400
C252        C  0.03769839  0.85322302  0.12357367     0.03600
C253        C  0.04103632  0.84271887  0.07618679    -0.21800
C254        C  0.02819441  0.81029880  0.06233723     0.12700
S255        S  0.49606876  0.75272596  0.07038082    -0.05500
C256        C  0.00539740  0.76862731  0.01617708    -0.08900
C257        C  0.02303426  0.79913532  0.01724417    -0.25500
S258        S  0.04784720  0.89368734  0.14652866    -0.02700
C259        C  0.02969851  0.88265712  0.19896404    -0.16200
C260        C  0.51750100  0.84891546  0.19873738    -0.14200
H261        H  0.49892375  0.78242934  0.16687070     0.21200
H262        H  0.05105322  0.86029370  0.05080844     0.17200
H263        H  0.02802920  0.81472469  0.98672048     0.19700
H264        H  0.50493408  0.83782295  0.22843219     0.13100
N265        N  0.48249147  0.72648712  0.95738248    -0.02500
C266        C  0.48230580  0.76105389  0.97604485     0.00100
C267        C  0.94891191  0.78635976  0.96386977    -0.22800
C268        C  0.92752791  0.76665344  0.93732820    -0.23000
C269        C  0.94846558  0.72978235  0.93433777     0.00000
H270        H  0.93953483  0.81516807  0.97647319     0.13800
H271        H  0.89861410  0.77756439  0.92469998     0.13900
N272        N  0.55419030  0.23226848  0.03379021    -0.02500
C273        C  0.56089009  0.19968082  0.05829900     0.00100
C274        C  0.59994063  0.18738790  0.06631523    -0.22800
C275        C  0.61785180  0.21319049  0.04670850    -0.23000
C276        C  0.58926026  0.24061017  0.02714283     0.00000
H277        H  0.61367374  0.16339861  0.08685341     0.13800
H278        H  0.64836981  0.21268670  0.04804135     0.13900
O279        O  0.75646875  0.40871532  0.78545911    -0.84300
O280        O  0.70690824  0.43928258  0.85600957    -0.81400
C281        C  0.71906215  0.42416008  0.89436887     0.99100
O282        O  0.74930442  0.43029449  0.91321185    -0.81400
O283        O  0.82344774  0.44132335  0.91596361    -0.84100
C284        C  0.84331460  0.41281833  0.89441351     1.03700
O285        O  0.84017804  0.40936254  0.85059895    -0.76800
O286        O  0.80999191  0.42159198  0.76026260    -0.77000
C287        C  0.78650433  0.40007496  0.76089032     1.03600
O288        O  0.75284506  0.48454506  0.74814489    -0.84300
O289        O  0.70707807  0.51384377  0.82316730    -0.81400
C290        C  0.69981347  0.52516281  0.86473679     0.99100
O291        O  0.71927637  0.50842989  0.89816395    -0.81400
O292        O  0.79330717  0.51988198  0.89133559    -0.84000
C293        C  0.82773979  0.51647357  0.87829531     1.03600
O294        O  0.84489727  0.48683306  0.85723759    -0.76800
O295        O  0.80505368  0.50093801  0.77477593    -0.77000
C296        C  0.77718053  0.50554093  0.74652995     1.03600
Cr297      Cr  0.73409094  0.46161129  0.80561008     1.93700
Cr298      Cr  0.77170016  0.47426706  0.90003170     1.93200
Cr299      Cr  0.82142936  0.45516915  0.81259058     1.39100
O300        O  0.77538524  0.46354418  0.83954659    -1.22100
N301        N  0.81373084  0.68563405  0.46357584    -0.02500
C302        C  0.81731027  0.65394423  0.48950689     0.00100
C303        C  0.85380237  0.63153356  0.48468784    -0.22800
C304        C  0.87366986  0.64994291  0.45530738    -0.23000
C305        C  0.84885359  0.68342555  0.44320669     0.00000
H306        H  0.86528963  0.60540120  0.50247407     0.13800
H307        H  0.90384155  0.64081232  0.44634226     0.13900
N308        N  0.74110211  0.17977156  0.53390640    -0.02500
C309        C  0.73718887  0.21367507  0.55627544     0.00100
C310        C  0.69926665  0.22731545  0.56931918    -0.22800
C311        C  0.67910617  0.20103122  0.55479352    -0.23000
C312        C  0.70533269  0.17199855  0.53320273     0.00000
H313        H  0.68784780  0.25289558  0.58921440     0.13800
H314        H  0.64861333  0.20285535  0.55983639     0.13900
O315        O  0.54792883  0.00030508  0.29244623    -0.84300
O316        O  0.59221056  0.96549023  0.36444254    -0.81400
C317        C  0.57759099  0.98206830  0.40150402     0.99100
O318        O  0.54578393  0.97711408  0.41681984    -0.81400
O319        O  0.97098557  0.96749758  0.41183199    -0.84100
C320        C  0.95253907  0.99644572  0.39084352     1.03700
O321        O  0.95844145  0.00071434  0.34791325    -0.76800
O322        O  0.99480563  0.99086149  0.26058307    -0.77000
C323        C  0.51982855  0.01068313  0.26527394     1.03600
O324        O  0.55048746  0.92771793  0.24741310    -0.84300
O325        O  0.59009334  0.89289278  0.32346576    -0.81400
C326        C  0.59527019  0.88094613  0.36466327     0.99100
O327        O  0.57513446  0.89836505  0.39787335    -0.81400
O328        O  0.00059686  0.88934289  0.38371588    -0.84000
C329        C  0.96691157  0.89360816  0.36758167     1.03600
O330        O  0.95195439  0.92327734  0.34589476    -0.76800
O331        O  0.99650795  0.91127463  0.26601589    -0.77000
C332        C  0.52554546  0.90816704  0.23977424     1.03600
Cr333      Cr  0.56678483  0.94653773  0.30913469     1.93700
Cr334      Cr  0.52309364  0.93388576  0.39803062     1.93200
Cr335      Cr  0.97888272  0.95584214  0.30735811     1.39100
O336        O  0.52311011  0.94555337  0.33831363    -1.22100
C337        C  0.87297884  0.05517088  0.46928356     0.17000
C338        C  0.84490657  0.06792299  0.50372050    -0.32100
C339        C  0.82178781  0.10432828  0.49932386     0.21400
C340        C  0.82666028  0.12725890  0.46245694     0.03600
C341        C  0.85438057  0.11424112  0.42757190    -0.21800
C342        C  0.87726377  0.07760511  0.43172004     0.12700
S343        S  0.90386505  0.01196130  0.46865231    -0.05500
C344        C  0.92236219  0.02365152  0.41661524    -0.08900
C345        C  0.90537695  0.05952468  0.40108244    -0.25500
S346        S  0.79567232  0.17058705  0.46349819    -0.02700
C347        C  0.77564173  0.15728909  0.51354530    -0.16200
C348        C  0.79226105  0.12131957  0.52858502    -0.14200
H349        H  0.84113730  0.05013278  0.53263566     0.21200
H350        H  0.85780951  0.13183706  0.39832210     0.17200
H351        H  0.91314403  0.07168144  0.36912439     0.19700
H352        H  0.78259238  0.10810899  0.55863853     0.13100
C353        C  0.61880704  0.05136313  0.47856032     0.17000
C354        C  0.62497399  0.07775700  0.51225270    -0.32100
C355        C  0.65521551  0.09615064  0.50464627     0.21400
C356        C  0.67878998  0.08838551  0.46562717     0.03600
C357        C  0.67295100  0.06151892  0.43212271    -0.21800
C358        C  0.64228109  0.04342441  0.43941591     0.12700
S359        S  0.58199123  0.02798675  0.48001408    -0.05500
C360        C  0.59809090  0.00733131  0.42709766    -0.08900
C361        C  0.63065581  0.01793448  0.40985880    -0.25500
S362        S  0.71243151  0.11566914  0.46191048    -0.02700
C363        C  0.69423699  0.13790334  0.51335666    -0.16200
C364        C  0.66400901  0.12426081  0.53204008    -0.14200
H365        H  0.60630321  0.08445351  0.54251733     0.21200
H366        H  0.69085676  0.05570625  0.40112198     0.17200
H367        H  0.64445571  0.00830095  0.37681127     0.19700
H368        H  0.64838217  0.13517818  0.56355065     0.13100
C369        C  0.90517097  0.75140637  0.38894804     0.17000
C370        C  0.93551606  0.76720151  0.37348897    -0.32100
C371        C  0.93108893  0.80642374  0.37774785     0.22000
C372        C  0.89729257  0.82915044  0.39497125     0.03600
C373        C  0.86695323  0.81325160  0.41073875    -0.21800
C374        C  0.87195962  0.77375622  0.40798050     0.12700
S375        S  0.90680821  0.70425914  0.39061153    -0.05500
C376        C  0.86292904  0.71408312  0.41932245    -0.08900
C377        C  0.84757546  0.75254854  0.42555878    -0.25500
S378        S  0.89754262  0.87625162  0.39649690    -0.02700
C379        C  0.94416208  0.86488798  0.37551143    -0.16200
C380        C  0.95828991  0.82670976  0.36713909    -0.14200
H381        H  0.96196394  0.74952117  0.36010355     0.21200
H382        H  0.84105997  0.83079607  0.42568022     0.17200
H383        H  0.82157563  0.76452857  0.44491471     0.19700
H384        H  0.98685084  0.81452377  0.35376352     0.13100
C385        C  0.68100028  0.79529443  0.37530215     0.17000
C386        C  0.71399095  0.76642839  0.36810442    -0.32100
C387        C  0.73329201  0.74923297  0.40769893     0.21400
C388        C  0.71994285  0.75968878  0.45252062     0.03600
C389        C  0.68672498  0.78826093  0.45965538    -0.21800
C390        C  0.66782957  0.80594306  0.42010100     0.12700
S391        S  0.65495696  0.82150040  0.33213273    -0.05500
C392        C  0.62620652  0.84745037  0.37489425    -0.08900
C393        C  0.63634763  0.83563062  0.42005536    -0.25500
S394        S  0.74805305  0.73603988  0.49602086    -0.02700
C395        C  0.77849950  0.71243244  0.45335770    -0.16200
C396        C  0.76689021  0.72207750  0.40799036    -0.14200
H397        H  0.72472954  0.75838216  0.33318854     0.21200
H398        H  0.67654258  0.79695216  0.49459748     0.17200
H399        H  0.62213228  0.84884256  0.45140245     0.19700
H400        H  0.78261073  0.71015805  0.37694598     0.13100
C401        C  0.79562098  0.30412160  0.69886911     0.17000
C402        C  0.79229860  0.26737501  0.68675880    -0.32100
C403        C  0.78857663  0.25879156  0.63921608     0.21400
C404        C  0.78943938  0.28522777  0.60504178     0.03600
C405        C  0.79495316  0.32140053  0.61699300    -0.21800
C406        C  0.79734138  0.33041307  0.66470245     0.12700
S407        S  0.79241223  0.32209256  0.75464091    -0.05500
C408        C  0.79343053  0.36545855  0.73180668    -0.08900
C409        C  0.79697027  0.36558400  0.68355983    -0.25500
S410        S  0.77565792  0.27228584  0.55098779    -0.02700
C411        C  0.76809754  0.23107789  0.57468620    -0.16200
C412        C  0.77739590  0.22741370  0.62175005    -0.14200
H413        H  0.78940228  0.24734853  0.71345971     0.21200
H414        H  0.79403998  0.34262005  0.59056825     0.17200
H415        H  0.79637290  0.39065182  0.66324707     0.19700
H416        H  0.77062544  0.20558280  0.64355516     0.13100
C417        C  0.78012760  0.58932920  0.66709381     0.17000
C418        C  0.78956607  0.62097018  0.64652023    -0.32100
C419        C  0.78257074  0.62618254  0.59856944     0.21400
C420        C  0.76596258  0.60150796  0.57240472     0.03600
C421        C  0.75508818  0.57056601  0.59343719    -0.21800
C422        C  0.76304582  0.56475680  0.64127648     0.12700
S423        S  0.79184003  0.57530906  0.72285043    -0.05500
C424        C  0.77378246  0.53567850  0.71161643    -0.08900
C425        C  0.75867068  0.53410728  0.66699942    -0.25500
S426        S  0.76667763  0.60873396  0.51346740    -0.02700
C427        C  0.78994387  0.64508399  0.52405904    -0.16200
C428        C  0.79565548  0.65152995  0.57118790    -0.14200
H429        H  0.80412520  0.63933698  0.66638573     0.21200
H430        H  0.74339304  0.55048003  0.57276985     0.17200
H431        H  0.74715122  0.51083832  0.65335830     0.19700
H432        H  0.81314082  0.67043338  0.58428012     0.13100
C433        C  0.67301693  0.36031709  0.97109561     0.17000
C434        C  0.66461387  0.33719044  0.00633519    -0.32100
C435        C  0.63501955  0.31806304  0.99819130     0.21400
C436        C  0.61397031  0.32199326  0.95709445     0.03600
C437        C  0.62190245  0.34592623  0.92189376    -0.21800
C438        C  0.65216864  0.36474634  0.92979571     0.12700
S439        S  0.70975637  0.38356964  0.97369353    -0.05500
C440        C  0.69732229  0.39972909  0.91839460    -0.08900
C441        C  0.66591236  0.38770040  0.89933302    -0.25500
S442        S  0.58158684  0.29309908  0.95317852    -0.02700
C443        C  0.59746614  0.27537888  0.00707486    -0.16200
C444        C  0.62542668  0.29191798  0.02687385    -0.14200
H445        H  0.68139584  0.33321744  0.03823486     0.21200
H446        H  0.60613712  0.34873963  0.88924334     0.17200
H447        H  0.65425474  0.39480774  0.86482090     0.19700
H448        H  0.63974756  0.28357331  0.05972712     0.13100
C449        C  0.96623137  0.28172086  0.96622193     0.17000
C450        C  0.93900188  0.29448808  0.93113788    -0.32100
C451        C  0.91583598  0.33101143  0.93615270     0.21400
C452        C  0.91900119  0.35340337  0.97502654     0.03600
C453        C  0.94632125  0.34074312  0.00996744    -0.21800
C454        C  0.97010888  0.30462285  0.00439678     0.12700
S455        S  0.99868320  0.23930145  0.96510219    -0.05500
C456        C  0.51803337  0.25290995  0.01602644    -0.08900
C457        C  0.50009164  0.28833106  0.03295031    -0.25500
S458        S  0.88850001  0.39681899  0.97467271    -0.02700
C459        C  0.87194502  0.38530225  0.92089330    -0.16200
C460        C  0.88903776  0.34928156  0.90472672    -0.14200
H461        H  0.93662062  0.27705036  0.90071088     0.21200
H462        H  0.94946736  0.35861971  0.03970437     0.17200
H463        H  0.50949333  0.30190837  0.06340048     0.19700
H464        H  0.88246661  0.33726698  0.87164162     0.13100
C465        C  0.51095455  0.13087427  0.11689593     0.17000
C466        C  0.50201888  0.09611312  0.12829534    -0.32100
C467        C  0.50803488  0.08384200  0.17475501     0.21400
C468        C  0.52185358  0.10549881  0.20827123     0.03600
C469        C  0.02900800  0.14083920  0.19737191    -0.21800
C470        C  0.52345579  0.15283958  0.15104849     0.12700
S471        S  0.51413637  0.14701514  0.06126641    -0.05500
C472        C  0.53267095  0.18352052  0.08440220    -0.08900
C473        C  0.53470630  0.18341905  0.13283336    -0.25500
S474        S  0.03215282  0.08401013  0.26085907    -0.02700
C475        C  0.51696197  0.04553377  0.23819687    -0.16200
C476        C  0.50445551  0.04952005  0.19208435    -0.14200
H477        H  0.49316457  0.07833731  0.10158322     0.21200
H478        H  0.04072946  0.15726621  0.22328580     0.17200
H479        H  0.04905250  0.20173883  0.15314133     0.19700
H480        H  0.49511466  0.02775202  0.17172523     0.13100
C481        C  0.57384338  0.64859404  0.95051013     0.17000
C482        C  0.60698975  0.62029470  0.95849164    -0.32100
C483        C  0.62537889  0.60010541  0.91947330     0.21400
C484        C  0.61155576  0.60787292  0.87456353     0.03600
C485        C  0.57853614  0.63606509  0.86662329    -0.21800
C486        C  0.56007347  0.65600619  0.90549800     0.12700
S487        S  0.54681004  0.67623447  0.99283936    -0.05500
C488        C  0.51651015  0.69732882  0.94920089    -0.08900
C489        C  0.52734594  0.68390631  0.90456972    -0.25500
S490        S  0.63756199  0.58010603  0.83192037    -0.02700
C491        C  0.66746861  0.55745531  0.87491442    -0.16200
C492        C  0.65749151  0.57115164  0.91987972    -0.14200
H493        H  0.61782965  0.61411045  0.99355454     0.21200
H494        H  0.56750203  0.64203171  0.83160016     0.17200
H495        H  0.51180602  0.69403142  0.87306759     0.19700
H496        H  0.67269482  0.56020690  0.95128864     0.13100
C497        C  0.89477902  0.58306177  0.90647707     0.17000
C498        C  0.92487315  0.59980768  0.92124609    -0.32100
C499        C  0.92077380  0.63858083  0.91372159     0.21400
C500        C  0.88871586  0.65947113  0.89137109     0.03600
C501        C  0.85848954  0.64282755  0.87692158    -0.21800
C502        C  0.86202358  0.60434453  0.88570341     0.12700
S503        S  0.89417890  0.53646041  0.91230073    -0.05500
C504        C  0.84874864  0.54618518  0.88819488    -0.08900
C505        C  0.83519390  0.58337511  0.87567674    -0.25500
S506        S  0.88867336  0.70620840  0.88680186    -0.02700
C507        C  0.93184412  0.69805347  0.91671641    -0.16200
C508        C  0.94546406  0.66050894  0.92865236    -0.14200
H509        H  0.95001860  0.58350559  0.93851556     0.21200
H510        H  0.83300946  0.65930939  0.86051484     0.17200
H511        H  0.80770899  0.59416867  0.85905833     0.19700
H512        H  0.97069681  0.64983145  0.94948547     0.13100
C513        C  0.01444432  0.78825559  0.09457004     0.17000
C514        C  0.01151357  0.79851645  0.14201304    -0.32100
C515        C  0.52246894  0.83196774  0.15544417     0.21400
C516        C  0.53769798  0.85322321  0.12357372     0.03600
C517        C  0.54103601  0.84271914  0.07618676    -0.21800
C518        C  0.52819445  0.81029875  0.06233744     0.12700
S519        S  0.99606800  0.75272648  0.07038050    -0.05500
C520        C  0.50539784  0.76862694  0.01617739    -0.08900
C521        C  0.52303439  0.79913511  0.01724450    -0.25500
S522        S  0.54784650  0.89368772  0.14652859    -0.02700
C523        C  0.52969810  0.88265731  0.19896405    -0.16200
C524        C  0.01750118  0.84891546  0.19873716    -0.14200
H525        H  0.99892280  0.78242900  0.16687143     0.21200
H526        H  0.55105247  0.86029368  0.05080884     0.17200
H527        H  0.52802919  0.81472492  0.98671999     0.19700
H528        H  0.00493375  0.83782283  0.22843250     0.13100
loop_ 
_geom_bond_atom_site_label_1 
_geom_bond_atom_site_label_2 
_geom_bond_distance 
_geom_bond_site_symmetry_2 
_ccdc_geom_bond_type 
N1            C2   1.355       .  A
N1          C269   1.359       .  A
N1          C224   1.440   1_655  S
C2          C256   1.468   1_656  S
C2          C267   1.381       .  A
C3            C4   1.373       .  A
C3          C266   1.381       .  A
C3            H6   1.082       .  S
C4            C5   1.384       .  A
C4            H7   1.081       .  S
C5          N265   1.359       .  A
C5          C243   1.485       .  S
N8           C12   1.359       .  A
N8            C9   1.360       .  A
N8          C192   1.436       .  S
C9          C208   1.476       .  S
C9           C10   1.382       .  A
C10          C11   1.369       .  A
C10          H13   1.082       .  S
C11          C12   1.382       .  A
C11          H14   1.081       .  S
C12         C179   1.480       .  S
O15         Cr33   1.988       .  S
O15          C23   1.258       .  A
O16         Cr33   2.013       .  S
O16          C17   1.268       .  A
C17         C176   1.474       .  S
C17          O18   1.262       .  A
O18         Cr34   1.973       .  S
O19         Cr34   2.019       .  S
O19          C20   1.270       .  A
C20         C195   1.478       .  S
C20          O21   1.266       .  A
O21         Cr35   1.990       .  S
O22         Cr35   2.013       .  S
O22          C23   1.261       .  A
C23         C144   1.472       .  S
O24         Cr33   2.032       .  S
O24          C32   1.272       .  A
O25         Cr33   1.987       .  S
O25          C26   1.262       .  A
C26         C227   1.478       .  S
C26          O27   1.263       .  A
O27         Cr34   2.002       .  S
O28         Cr34   1.989       .  S
O28          C29   1.259       .  A
C29         C240   1.463       .  S
C29          O30   1.260       .  A
O30         Cr35   2.005       .  S
O31         Cr35   1.975       .  S
O31          C32   1.262       .  A
C32         C160   1.478       .  S
Cr33         O36   1.772       .  S
Cr34         O36   1.768       .  S
Cr35         O36   1.773       .  S
N37          C41   1.364       .  A
N37          C38   1.361       .  A
N37         C131   1.441       .  S
C38         C163   1.475       .  S
C38          C39   1.378       .  A
C39          C40   1.370       .  A
C39          H42   1.082       .  S
C40          C41   1.385       .  A
C40          H43   1.081       .  S
C41         C112   1.490       .  S
N44          C48   1.361       .  A
N44          C45   1.358       .  A
N44          C83   1.437       .  S
C45         C147   1.474       .  S
C45          C46   1.381       .  A
C46          C47   1.371       .  A
C46          H49   1.082       .  S
C47          C48   1.384       .  A
C47          H50   1.081       .  S
C48          C99   1.483       .  S
O51         Cr69   1.986   1_545  S
O51          C59   1.260       .  A
O52         Cr69   2.007       .  S
O52          C53   1.266       .  A
C53          C96   1.475   1_565  S
C53          O54   1.263       .  A
O54         Cr70   1.981       .  S
O55        Cr334   2.019       .  S
O55          C56   1.270       .  A
C56          C80   1.479   1_565  S
C56          O57   1.265   1_565  A
O57         Cr71   1.989   1_545  S
O58         Cr71   2.023       .  S
O58         C323   1.265   1_565  A
C59         C211   1.478       .  S
C59         O322   1.265   1_445  A
O60         Cr69   2.014       .  S
O60          C68   1.267       .  A
O61         Cr69   1.991       .  S
O61          C62   1.262       .  A
C62         C128   1.483       .  S
C62          O63   1.266       .  A
O63         Cr70   2.011       .  S
O64        Cr334   1.990       .  S
O64          C65   1.261       .  A
C65         C115   1.471       .  S
C65          O66   1.264       .  A
O66         Cr71   2.016       .  S
O67         Cr71   1.978       .  S
O67         C332   1.261       .  A
C68         C259   1.467       .  S
C68         O331   1.261   1_455  A
Cr69         O72   1.771       .  S
Cr70        O319   2.019   1_455  S
Cr70        O328   1.990       .  S
Cr70         O72   1.767       .  S
Cr71        O336   1.773       .  S
O72        Cr335   1.773   1_455  S
C73          C78   1.387       .  A
C73          C74   1.403       .  A
C73          S79   1.707       .  A
C74          C75   1.403       .  A
C74          H85   1.083       .  S
C75          C84   1.374       .  A
C75          C76   1.388       .  A
C76          C77   1.406       .  A
C76          S82   1.712       .  A
C77          C78   1.406       .  A
C77          H86   1.084       .  S
C78          C81   1.378       .  A
S79          C80   1.725       .  A
C80          C81   1.390       .  A
C81          H87   1.083       .  S
S82          C83   1.722       .  A
C83          C84   1.385       .  A
C84          H88   1.083       .  S
C89          C94   1.387       .  A
C89          C90   1.399       .  A
C89          S95   1.708       .  A
C90          C91   1.402       .  A
C90         H101   1.084       .  S
C91         C100   1.366       .  A
C91          C92   1.385       .  A
C92          C93   1.404       .  A
C92          S98   1.714       .  A
C93          C94   1.407       .  A
C93         H102   1.084       .  S
C94          C97   1.372       .  A
S95          C96   1.722       .  A
C96          C97   1.390       .  A
C97         H103   1.084       .  S
S98          C99   1.726       .  A
C99         C100   1.388       .  A
C100        H104   1.084       .  S
C105        C110   1.385       .  A
C105        C106   1.402       .  A
C105        S111   1.701       .  A
C106        C107   1.401       .  A
C106        H117   1.083       .  S
C107        C116   1.373       .  A
C107        C108   1.387       .  A
C108        C109   1.407       .  A
C108        S114   1.711       .  A
C109        C110   1.406       .  A
C109        H118   1.083       .  S
C110        C113   1.378       .  A
S111        C112   1.728       .  A
C112        C113   1.393       .  A
C113        H119   1.081       .  S
S114        C115   1.724       .  A
C115        C116   1.384       .  A
C116        H120   1.083       .  S
C121        C126   1.386       .  A
C121        C122   1.405       .  A
C121        S127   1.714       .  A
C122        C123   1.406       .  A
C122        H133   1.083       .  S
C123        C132   1.373       .  A
C123        C124   1.387       .  A
C124        C125   1.404       .  A
C124        S130   1.715       .  A
C125        C126   1.406       .  A
C125        H134   1.083       .  S
C126        C129   1.374       .  A
S127        C128   1.726       .  A
C128        C129   1.390       .  A
C129        H135   1.083       .  S
S130        C131   1.722       .  A
C131        C132   1.389       .  A
C132        H136   1.083       .  S
C137        C142   1.387       .  A
C137        C138   1.402       .  A
C137        S143   1.710       .  A
C138        C139   1.404       .  A
C138        H149   1.083       .  S
C139        C148   1.372       .  A
C139        C140   1.385       .  A
C140        C141   1.406       .  A
C140        S146   1.712       .  A
C141        C142   1.406       .  A
C141        H150   1.083       .  S
C142        C145   1.376       .  A
S143        C144   1.721       .  A
C144        C145   1.387       .  A
C145        H151   1.083       .  S
S146        C147   1.725       .  A
C147        C148   1.388       .  A
C148        H152   1.083       .  S
C153        C158   1.387       .  A
C153        C154   1.402       .  A
C153        S159   1.706       .  A
C154        C155   1.403       .  A
C154        H165   1.083       .  S
C155        C164   1.373       .  A
C155        C156   1.385       .  A
C156        C157   1.408       .  A
C156        S162   1.712       .  A
C157        C158   1.408       .  A
C157        H166   1.083       .  S
C158        C161   1.380       .  A
S159        C160   1.723       .  A
C160        C161   1.390       .  A
C161        H167   1.083       .  S
S162        C163   1.725       .  A
C163        C164   1.388       .  A
C164        H168   1.084       .  S
C169        C174   1.387       .  A
C169        C170   1.395   1_556  A
C169        S175   1.703       .  A
C170        C171   1.398   1_554  A
C170        H181   1.084       .  S
C171        C180   1.362   1_556  A
C171        C172   1.386       .  A
C172        C173   1.408       .  A
C172        S178   1.720       .  A
C173        C174   1.410       .  A
C173        H182   1.084       .  S
C174        C177   1.376       .  A
S175        C176   1.720       .  A
C176        C177   1.392       .  A
C177        H183   1.084       .  S
S178        C179   1.727   1_556  A
C179        C180   1.384       .  A
C180        H184   1.084       .  S
C185        C190   1.388   1_556  A
C185        C186   1.406       .  A
C185        S191   1.711       .  A
C186        C187   1.405       .  A
C186        H197   1.083       .  S
C187        C196   1.377       .  A
C187        C188   1.387       .  A
C188        C189   1.404   1_556  A
C188        S194   1.707       .  A
C189        C190   1.404       .  A
C189        H198   1.083       .  S
C190        C457   1.375       .  A
S191        C456   1.722   1_556  A
C192        C193   1.385       .  A
C192        S455   1.722   1_454  A
C193        C454   1.375   1_455  A
C193        H199   1.083       .  S
S194        C195   1.725       .  A
C195        C196   1.389       .  A
C196        H200   1.083       .  S
C201        C206   1.385       .  A
C201        C202   1.409       .  A
C201        S207   1.717       .  A
C202        C203   1.410       .  A
C202        H213   1.083   1_455  S
C203        C212   1.379       .  A
C203        C204   1.387       .  A
C204        C469   1.400       .  A
C204        S474   1.708       .  A
C205        C468   1.400       .  A
C205        C470   1.402       .  A
C205        H214   1.083       .  S
C206        C209   1.369       .  A
C206        C469   1.402       .  A
S207        C208   1.726       .  A
C208        C209   1.388       .  A
C209        H479   1.084       .  S
S210        C468   1.708       .  A
S210        C475   1.721       .  A
C211        C212   1.392       .  A
C211        S474   1.721       .  A
C212        H216   1.083   1_455  S
H215        C473   1.084       .  S
C217        C222   1.387       .  A
C217        C218   1.405       .  A
C217        S223   1.716       .  A
C218        C219   1.407       .  A
C218        H229   1.084       .  S
C219        C228   1.373       .  A
C219        C220   1.386       .  A
C220        C221   1.400       .  A
C220        S226   1.709       .  A
C221        C222   1.401       .  A
C221        H230   1.084       .  S
C222        C225   1.366       .  A
S223        C224   1.724       .  A
C224        C225   1.385       .  A
C225        H231   1.083       .  S
S226        C227   1.722       .  A
C227        C228   1.391       .  A
C228        H232   1.083       .  S
C233        C238   1.388       .  A
C233        C234   1.402       .  A
C233        S239   1.706       .  A
C234        C235   1.403       .  A
C234        H245   1.082       .  S
C235        C244   1.370       .  A
C235        C236   1.385       .  A
C236        C237   1.401       .  A
C236        S242   1.703       .  A
C237        C238   1.401       .  A
C237        H246   1.081       .  S
C238        C241   1.371       .  A
S239        C240   1.721       .  A
C240        C241   1.383       .  A
C241        H247   1.082       .  S
S242        C243   1.726       .  A
C243        C244   1.391       .  A
C244        H248   1.079       .  S
C249        C250   1.401       .  A
C249        C518   1.387       .  A
C249        S255   1.705       .  A
C250        C515   1.401       .  A
C250        H261   1.084       .  S
C251        C252   1.387       .  A
C251        C514   1.401       .  A
C251        C524   1.370       .  A
C252        C253   1.402       .  A
C252        S258   1.708       .  A
C253        C254   1.403       .  A
C253        H262   1.084       .  S
C254        C257   1.371       .  A
C254        C513   1.387       .  A
S255        C520   1.721       .  A
C256        C257   1.386       .  A
C256        S519   1.721   1_455  A
C257        H263   1.084   1_554  S
S258        C259   1.721       .  A
C259        C524   1.385       .  A
C260        C515   1.370       .  A
C260        C523   1.385       .  A
C260        H264   1.083       .  S
N265        C266   1.355       .  A
N265        C488   1.440       .  S
C266        C520   1.468   1_556  S
C267        C268   1.373       .  A
C267        H270   1.082       .  S
C268        C269   1.384       .  A
C268        H271   1.081       .  S
C269        C507   1.485       .  S
N272        C276   1.359       .  A
N272        C273   1.360       .  A
N272        C456   1.436       .  S
C273        C472   1.476       .  S
C273        C274   1.382       .  A
C274        C275   1.369       .  A
C274        H277   1.082       .  S
C275        C276   1.382       .  A
C275        H278   1.081       .  S
C276        C443   1.480       .  S
O279       Cr297   1.988       .  S
O279        C287   1.258       .  A
O280       Cr297   2.013       .  S
O280        C281   1.268       .  A
C281        C440   1.474       .  S
C281        O282   1.262       .  A
O282       Cr298   1.973       .  S
O283       Cr298   2.019       .  S
O283        C284   1.270       .  A
C284        C459   1.478       .  S
C284        O285   1.266       .  A
O285       Cr299   1.990       .  S
O286       Cr299   2.013       .  S
O286        C287   1.261       .  A
C287        C408   1.472       .  S
O288       Cr297   2.032       .  S
O288        C296   1.272       .  A
O289       Cr297   1.987       .  S
O289        C290   1.262       .  A
C290        C491   1.478       .  S
C290        O291   1.263       .  A
O291       Cr298   2.002       .  S
O292       Cr298   1.989       .  S
O292        C293   1.259       .  A
C293        C504   1.463       .  S
C293        O294   1.260       .  A
O294       Cr299   2.005       .  S
O295       Cr299   1.975       .  S
O295        C296   1.262       .  A
C296        C424   1.478       .  S
Cr297       O300   1.772       .  S
Cr298       O300   1.768       .  S
Cr299       O300   1.773       .  S
N301        C305   1.364       .  A
N301        C302   1.361       .  A
N301        C395   1.441       .  S
C302        C427   1.475       .  S
C302        C303   1.378       .  A
C303        C304   1.370       .  A
C303        H306   1.082       .  S
C304        C305   1.385       .  A
C304        H307   1.081       .  S
C305        C376   1.490       .  S
N308        C312   1.361       .  A
N308        C309   1.358       .  A
N308        C347   1.437       .  S
C309        C411   1.474       .  S
C309        C310   1.381       .  A
C310        C311   1.371       .  A
C310        H313   1.082       .  S
C311        C312   1.384       .  A
C311        H314   1.081       .  S
C312        C363   1.483       .  S
O315       Cr333   1.986   1_545  S
O315        C323   1.260       .  A
O316       Cr333   2.007       .  S
O316        C317   1.266       .  A
C317        C360   1.475   1_565  S
C317        O318   1.263       .  A
O318       Cr334   1.981       .  S
O319        C320   1.270       .  A
C320        C344   1.479   1_565  S
C320        O321   1.265   1_565  A
O321       Cr335   1.989   1_545  S
O322       Cr335   2.023       .  S
C323        C475   1.478       .  S
O324       Cr333   2.014       .  S
O324        C332   1.267       .  A
O325       Cr333   1.991       .  S
O325        C326   1.262       .  A
C326        C392   1.483       .  S
C326        O327   1.266       .  A
O327       Cr334   2.011       .  S
O328        C329   1.261   1_455  A
C329        C379   1.471       .  S
C329        O330   1.264       .  A
O330       Cr335   2.016       .  S
O331       Cr335   1.978       .  S
C332        C523   1.467       .  S
Cr333       O336   1.771       .  S
Cr334       O336   1.767       .  S
C337        C342   1.387       .  A
C337        C338   1.403       .  A
C337        S343   1.707       .  A
C338        C339   1.403       .  A
C338        H349   1.084       .  S
C339        C348   1.374       .  A
C339        C340   1.388       .  A
C340        C341   1.406       .  A
C340        S346   1.712       .  A
C341        C342   1.406       .  A
C341        H350   1.084       .  S
C342        C345   1.378       .  A
S343        C344   1.725       .  A
C344        C345   1.390       .  A
C345        H351   1.083       .  S
S346        C347   1.722       .  A
C347        C348   1.385       .  A
C348        H352   1.083       .  S
C353        C358   1.387       .  A
C353        C354   1.399       .  A
C353        S359   1.708       .  A
C354        C355   1.402       .  A
C354        H365   1.084       .  S
C355        C364   1.366       .  A
C355        C356   1.385       .  A
C356        C357   1.404       .  A
C356        S362   1.714       .  A
C357        C358   1.407       .  A
C357        H366   1.084       .  S
C358        C361   1.372       .  A
S359        C360   1.722       .  A
C360        C361   1.390       .  A
C361        H367   1.084       .  S
S362        C363   1.726       .  A
C363        C364   1.388       .  A
C364        H368   1.083       .  S
C369        C374   1.385       .  A
C369        C370   1.402       .  A
C369        S375   1.701       .  A
C370        C371   1.401       .  A
C370        H381   1.083       .  S
C371        C380   1.373       .  A
C371        C372   1.387       .  A
C372        C373   1.407       .  A
C372        S378   1.711       .  A
C373        C374   1.406       .  A
C373        H382   1.083       .  S
C374        C377   1.378       .  A
S375        C376   1.728       .  A
C376        C377   1.393       .  A
C377        H383   1.081       .  S
S378        C379   1.724       .  A
C379        C380   1.384       .  A
C380        H384   1.083       .  S
C385        C390   1.386       .  A
C385        C386   1.405       .  A
C385        S391   1.714       .  A
C386        C387   1.406       .  A
C386        H397   1.083       .  S
C387        C396   1.373       .  A
C387        C388   1.387       .  A
C388        C389   1.404       .  A
C388        S394   1.715       .  A
C389        C390   1.406       .  A
C389        H398   1.083       .  S
C390        C393   1.374       .  A
S391        C392   1.726       .  A
C392        C393   1.390       .  A
C393        H399   1.083       .  S
S394        C395   1.722       .  A
C395        C396   1.389       .  A
C396        H400   1.083       .  S
C401        C406   1.387       .  A
C401        C402   1.402       .  A
C401        S407   1.710       .  A
C402        C403   1.404       .  A
C402        H413   1.083       .  S
C403        C412   1.372       .  A
C403        C404   1.385       .  A
C404        C405   1.406       .  A
C404        S410   1.712       .  A
C405        C406   1.406       .  A
C405        H414   1.083       .  S
C406        C409   1.376       .  A
S407        C408   1.721       .  A
C408        C409   1.387       .  A
C409        H415   1.083       .  S
S410        C411   1.725       .  A
C411        C412   1.388       .  A
C412        H416   1.083       .  S
C417        C422   1.387       .  A
C417        C418   1.402       .  A
C417        S423   1.706       .  A
C418        C419   1.403       .  A
C418        H429   1.083       .  S
C419        C428   1.373       .  A
C419        C420   1.385       .  A
C420        C421   1.408       .  A
C420        S426   1.712       .  A
C421        C422   1.408       .  A
C421        H430   1.083       .  S
C422        C425   1.380       .  A
S423        C424   1.723       .  A
C424        C425   1.390       .  A
C425        H431   1.083       .  S
S426        C427   1.725       .  A
C427        C428   1.388       .  A
C428        H432   1.083       .  S
C433        C438   1.387       .  A
C433        C434   1.395   1_556  A
C433        S439   1.703       .  A
C434        C435   1.398   1_554  A
C434        H445   1.084       .  S
C435        C444   1.362   1_556  A
C435        C436   1.386       .  A
C436        C437   1.408       .  A
C436        S442   1.720       .  A
C437        C438   1.410       .  A
C437        H446   1.084       .  S
C438        C441   1.376       .  A
S439        C440   1.720       .  A
C440        C441   1.392       .  A
C441        H447   1.084       .  S
S442        C443   1.727   1_556  A
C443        C444   1.384       .  A
C444        H448   1.084       .  S
C449        C454   1.388   1_556  A
C449        C450   1.406       .  A
C449        S455   1.711       .  A
C450        C451   1.405       .  A
C450        H461   1.083       .  S
C451        C460   1.377       .  A
C451        C452   1.387       .  A
C452        C453   1.404   1_556  A
C452        S458   1.707       .  A
C453        C454   1.404       .  A
C453        H462   1.083       .  S
C456        C457   1.385       .  A
C457        H463   1.083       .  S
S458        C459   1.725       .  A
C459        C460   1.389       .  A
C460        H464   1.083       .  S
C465        C470   1.385       .  A
C465        C466   1.409       .  A
C465        S471   1.717       .  A
C466        C467   1.410       .  A
C466        H477   1.083       .  S
C467        C476   1.379       .  A
C467        C468   1.387       .  A
C469        H478   1.083       .  S
C470        C473   1.369       .  A
S471        C472   1.726       .  A
C472        C473   1.388       .  A
C475        C476   1.392       .  A
C476        H480   1.083       .  S
C481        C486   1.387       .  A
C481        C482   1.405       .  A
C481        S487   1.716       .  A
C482        C483   1.407       .  A
C482        H493   1.084       .  S
C483        C492   1.373       .  A
C483        C484   1.386       .  A
C484        C485   1.400       .  A
C484        S490   1.709       .  A
C485        C486   1.401       .  A
C485        H494   1.084       .  S
C486        C489   1.366       .  A
S487        C488   1.724       .  A
C488        C489   1.385       .  A
C489        H495   1.083       .  S
S490        C491   1.722       .  A
C491        C492   1.391       .  A
C492        H496   1.084       .  S
C497        C502   1.388       .  A
C497        C498   1.402       .  A
C497        S503   1.706       .  A
C498        C499   1.403       .  A
C498        H509   1.082       .  S
C499        C508   1.370       .  A
C499        C500   1.385       .  A
C500        C501   1.401       .  A
C500        S506   1.703       .  A
C501        C502   1.401       .  A
C501        H510   1.081       .  S
C502        C505   1.371       .  A
S503        C504   1.721       .  A
C504        C505   1.383       .  A
C505        H511   1.082       .  S
S506        C507   1.726       .  A
C507        C508   1.391       .  A
C508        H512   1.079       .  S
C513        C514   1.401       .  A
C513        S519   1.705   1_455  A
C514        H525   1.084   1_455  S
C515        C516   1.387       .  A
C516        C517   1.402       .  A
C516        S522   1.708       .  A
C517        C518   1.403       .  A
C517        H526   1.084       .  S
C518        C521   1.371       .  A
C520        C521   1.386       .  A
C521        H527   1.084   1_554  S
S522        C523   1.721       .  A
C524        H528   1.083       .  S
