geometry optimzed in LAMMPS
_audit_creation_date              2020-11-30 
_audit_creation_method            'lammps2cif' 
_symmetry_space_group_name_H-M    'P1' 
_symmetry_Int_Tables_number       1 
_symmetry_cell_setting            triclinic 
loop_ 
_symmetry_equiv_pos_as_xyz 
  x,y,z 
_cell_length_a                    45.44269941 
_cell_length_b                    45.49132136241884 
_cell_length_c                    30.326025139991 
_cell_angle_alpha                 90.02303523801528 
_cell_angle_beta                  89.84073666653428 
_cell_angle_gamma                 120.95731339033789 
loop_ 
_atom_site_label 
_atom_site_type_symbol 
_atom_site_fract_x 
_atom_site_fract_y 
_atom_site_fract_z 
_atom_site_charge 
O1          O  0.07293000  0.42925333  0.19135172    -0.81400
C2          C  0.19635598  0.46962500  0.25941504     0.97900
O3          O  0.18195422  0.44602294  0.23016196    -0.70600
O4          O  0.11654132  0.40355218  0.23689328    -0.74200
Al5        Al  0.14312288  0.43261504  0.19132392     1.49000
C6          C  0.10183781  0.40549860  0.27085046     0.93200
O7          O  0.12017013  0.49647591  0.27686066    -0.80400
O8          O  0.16118043  0.52085829  0.16086040    -0.73900
Al9        Al  0.10220547  0.46375028  0.23026750     1.90100
O10         O  0.16546688  0.53558411  0.24525737    -0.73000
O11         O  0.20751362  0.50101819  0.17259846    -0.72900
O12         O  0.19490677  0.49691012  0.25825897    -0.78500
O13         O  0.17105122  0.45439416  0.14057476    -0.76700
O14         O  0.14075813  0.46824131  0.21017931    -1.12900
O15         O  0.10343008  0.41408530  0.15238165    -0.72000
C16         C  0.07498981  0.41176443  0.16099802     0.98700
C17         C  0.14235356  0.52754090  0.27325100     0.95100
Al18       Al  0.17852378  0.50952603  0.20936529     1.55600
O19         O  0.09571983  0.42975856  0.27482680    -0.76700
C20         C  0.20137968  0.47903460  0.14366448     0.99200
C21         C  0.13103991  0.51610116  0.15770374     0.94100
O22         O  0.10682277  0.49750115  0.18547260    -0.76600
O23         O  0.97679019  0.18586708  0.45078622    -0.81400
C24         C  0.02769685  0.18755619  0.28127731     0.97900
O25         O  0.02114197  0.16589502  0.31144733    -0.70600
O26         O  0.04782542  0.17929256  0.39028132    -0.74200
Al27       Al  0.00166949  0.15784948  0.36871642     1.49000
C28         C  0.05885198  0.19766696  0.42412125     0.93200
O29         O  0.04613564  0.26131335  0.38605493    -0.80400
O30         O  0.94713154  0.21104688  0.35501403    -0.73900
Al31       Al  0.01117853  0.22220546  0.41643522     1.90100
O32         O  0.01412247  0.25642159  0.32872418    -0.73000
O33         O  0.94698936  0.16096430  0.30539027    -0.72900
O34         O  0.01533516  0.20694213  0.28254364    -0.78500
O35         O  0.95692687  0.12839610  0.34778462    -0.76700
O36         O  0.99838988  0.19571322  0.36866130    -1.12900
O37         O  0.98213097  0.14315598  0.42651702    -0.72000
C38         C  0.96940887  0.15506239  0.45318951     0.98700
C39         C  0.03955582  0.27457355  0.35374456     0.95100
Al40       Al  0.98228115  0.20750467  0.32183085     1.55600
O41         O  0.04472810  0.21359337  0.43668422    -0.76700
C42         C  0.93880957  0.13140898  0.31918250     0.99200
C43         C  0.95463790  0.23017125  0.38863541     0.94100
O44         O  0.98138361  0.23832751  0.40973613    -0.82000
O45         O  0.89337604  0.29572527  0.50589206    -0.81400
C46         C  0.88092996  0.39164265  0.09288139     0.97900
O47         O  0.90317993  0.39961650  0.06155179    -0.70600
O48         O  0.93965527  0.36949619  0.05474409    -0.74200
Al49       Al  0.90858922  0.37098972  0.01640681     1.49000
C50         C  0.94045136  0.34869489  0.08098412     0.93200
O51         O  0.84602906  0.28969710  0.10783303    -0.80400
O52         O  0.81543959  0.30745140  0.49457045    -0.73900
Al53       Al  0.87070466  0.29708877  0.05400121     1.90100
O54         O  0.80664903  0.29643891  0.07973594    -0.73000
O55         O  0.84435113  0.37543978  0.51036638    -0.72900
O56         O  0.85199521  0.36375947  0.09294806    -0.78500
O57         O  0.88521413  0.37989942  0.47056057    -0.76700
O58         O  0.87162436  0.33479410  0.03825882    -1.12900
O59         O  0.91794443  0.34476922  0.47101678    -0.72000
C60         C  0.91122779  0.31399537  0.47468131     0.98700
C61         C  0.81499463  0.28094964  0.10621098     0.95100
Al62       Al  0.83331061  0.33597870  0.04393181     1.55600
O63         O  0.91333566  0.31989385  0.08840368    -0.76700
C64         C  0.86390083  0.38895072  0.47812292     0.99200
C65         C  0.81449302  0.27908449  0.49060280     0.94100
O66         O  0.82989904  0.27032629  0.01776006    -0.82000
O67         O  0.90078952  0.58349298  0.23762657    -0.81400
C68         C  0.85030751  0.48426466  0.36334106     0.97900
O69         O  0.85472093  0.51416665  0.37163552    -0.70600
O70         O  0.91154952  0.56724198  0.34353364    -0.74200
Al71       Al  0.86593067  0.55320722  0.33118860     1.49000
C72         C  0.93503995  0.56529252  0.32481570     0.93200
O73         O  0.89290413  0.49905905  0.24402529    -0.80400
O74         O  0.80769847  0.50244871  0.23771073    -0.73900
Al75       Al  0.89301591  0.54007277  0.24494627     1.90100
O76         O  0.83844416  0.46572895  0.23646672    -0.73000
O77         O  0.79399659  0.49027219  0.32506180    -0.72900
O78         O  0.83993182  0.46974949  0.32607971    -0.78500
O79         O  0.82052753  0.54528281  0.32877831    -0.76700
O80         O  0.86127929  0.52695379  0.28612168    -1.12900
O81         O  0.87880460  0.59424612  0.29501870    -0.72000
C82         C  0.89298105  0.60261324  0.25704916     0.98700
C83         C  0.86849768  0.47314887  0.22723396     0.95100
Al84       Al  0.82324817  0.48552643  0.28176759     1.55600
O85         O  0.93115388  0.55483604  0.28531142    -0.76700
C86         C  0.79454264  0.51688719  0.33769492     0.99200
C87         C  0.82528197  0.51793871  0.20372965     0.94100
O88         O  0.85716608  0.52730514  0.19955301    -0.82000
O89         O  0.09531139  0.68167263  0.01290122    -0.81400
C90         C  0.14637651  0.63374835  0.38707040     0.97900
O91         O  0.14026995  0.65809135  0.37865486    -0.70600
O92         O  0.08415161  0.65378494  0.40962633    -0.74200
Al93       Al  0.12973996  0.68667347  0.41929507     1.49000
C94         C  0.06133682  0.62724002  0.42816550     0.93200
O95         O  0.10666269  0.60680980  0.00994112    -0.80400
O96         O  0.19005985  0.69945465  0.01080264    -0.73900
Al97       Al  0.10478669  0.64699756  0.00681819     1.90100
O98         O  0.16162380  0.63141092  0.01365846    -0.73000
O99         O  0.20212580  0.69894475  0.42292679    -0.72900
O100        O  0.15783678  0.63130936  0.42429240    -0.78500
O101        O  0.17456803  0.72559441  0.41917415    -0.76700
O102        O  0.13586129  0.66626558  0.46432166    -1.12900
O103        O  0.11779633  0.71533713  0.45586031    -0.72000
C104        C  0.10367074  0.70916383  0.49389045     0.98700
C105        C  0.13242302  0.60717998  0.02439673     0.95100
Al106      Al  0.17462082  0.66526287  0.46755745     1.55600
O107        O  0.06613065  0.62045593  0.46719468    -0.76700
C108        C  0.20061519  0.72429731  0.40989569     0.99200
C109        C  0.17308894  0.69759167  0.04518072     0.94100
O110        O  0.14155388  0.67346364  0.05087283    -0.82000
O111        O  0.01508531  0.76888460  0.07407692    -0.81400
C112        C  0.96993347  0.81155861  0.21358720     0.97900
O113        O  0.99466566  0.80559815  0.21764980    -0.70600
O114        O  0.98658079  0.75130241  0.17842662    -0.74200
Al115      Al  0.02071066  0.79649737  0.17200080     1.49000
C116        C  0.95917530  0.73098300  0.15941517     0.93200
O117        O  0.94042905  0.78286590  0.08254187    -0.80400
O118        O  0.03300851  0.86416149  0.09162761    -0.73900
Al119      Al  0.98073963  0.77940786  0.08430819     1.90100
O120        O  0.96605146  0.83711046  0.09296655    -0.73000
O121        O  0.03296194  0.86718213  0.17973459    -0.72900
O122        O  0.96578126  0.82444534  0.17871481    -0.78500
O123        O  0.06008126  0.84052347  0.17273967    -0.76700
O124        O  0.00003397  0.80611551  0.13028271    -1.12900
O125        O  0.04752796  0.78555939  0.13233619    -0.72000
C126        C  0.04163047  0.77396616  0.09329558     0.98700
C127        C  0.94135993  0.81059199  0.07725758     0.95100
Al128      Al  0.99940095  0.84472125  0.13513125     1.55600
O129        O  0.95290537  0.73829105  0.12114603    -0.76700
C130        C  0.05907440  0.86553680  0.18741006     0.99200
C131        C  0.03236903  0.85078526  0.05453849     0.94100
O132        O  0.00895649  0.81962186  0.04479007    -0.82000
O133        O  0.31381896  0.85662313  0.29187350    -0.81400
C134        C  0.35945039  0.86101562  0.11639565     0.97900
O135        O  0.34837141  0.83644668  0.14354767    -0.70600
O136        O  0.37701742  0.84544648  0.22019910    -0.74200
Al137      Al  0.33120715  0.82853939  0.20240853     1.49000
C138        C  0.39138188  0.86238523  0.25425419     0.93200
O139        O  0.38382975  0.93316999  0.22813920    -0.80400
O140        O  0.28560064  0.88728295  0.19551335    -0.73900
Al141      Al  0.34814445  0.89301278  0.25700682     1.90100
O142        O  0.35206597  0.93227240  0.17303210    -0.73000
O143        O  0.28479477  0.84094747  0.13956874    -0.72900
O144        O  0.35346073  0.88498500  0.12247543    -0.78500
O145        O  0.28516111  0.80413799  0.18424195    -0.76700
O146        O  0.33327695  0.86876397  0.20703388    -1.12900
O147        O  0.31317427  0.81286436  0.26035114    -0.72000
C148        C  0.30387131  0.82514619  0.29092109     0.98700
C149        C  0.37760056  0.94852905  0.19811363     0.95100
Al150      Al  0.32014602  0.88481182  0.16161041     1.55600
O151        O  0.38121629  0.88055849  0.27222349    -0.76700
C152        C  0.27120569  0.81045174  0.15313487     0.99200
C153        C  0.29235779  0.90395344  0.23121186     0.94100
O154        O  0.31826406  0.91024170  0.25374116    -0.82000
O155        O  0.26940722  0.03678307  0.40335427    -0.81400
C156        C  0.14432705  0.95191981  0.32910575     0.97900
O157        O  0.15627104  0.94028502  0.35819238    -0.70600
O158        O  0.21978514  0.96182202  0.34684708    -0.74200
Al159      Al  0.19777194  0.96499004  0.39477580     1.49000
C160        C  0.24220941  0.98105258  0.31994147     0.93200
O161        O  0.22292183  0.05002784  0.31026491    -0.80400
O162        O  0.18476170  0.03615991  0.43115715    -0.73900
Al163      Al  0.24225455  0.03987870  0.35992350     1.90100
O164        O  0.18168664  0.04920208  0.34685414    -0.73000
O165        O  0.13651133  0.96996848  0.41777148    -0.72900
O166        O  0.14946715  0.98199964  0.33201772    -0.78500
O167        O  0.17327295  0.96022245  0.44795272    -0.76700
O168        O  0.20298374  0.00466846  0.37906524    -1.12900
O169        O  0.24000264  0.98451580  0.43001151    -0.72000
C170        C  0.26768514  0.01353804  0.42737223     0.98700
C171        C  0.20220978  0.06024972  0.31516152     0.95100
Al172      Al  0.16645096  0.00895086  0.38189648     1.55600
O173        O  0.25318667  0.01302262  0.31920801    -0.76700
C174        C  0.14284697  0.95348115  0.44536579     0.99200
C175        C  0.21291182  0.06465174  0.42913224     0.94100
O176        O  0.23635778  0.07075969  0.40038431    -0.82000
O177        O  0.44987569  0.07501785  0.07864073    -0.81400
C178        C  0.45452162  0.17893680  0.49162343     0.97900
O179        O  0.43341772  0.16354833  0.02341781    -0.70600
O180        O  0.40219962  0.09723255  0.53799126    -0.74200
Al181      Al  0.43352472  0.13337419  0.07053617     1.49000
C182        C  0.40202320  0.07778359  0.50856174     0.93200
O183        O  0.49637659  0.11865429  0.47613127    -0.80400
O184        O  0.52912293  0.17138972  0.08561081    -0.73900
Al185      Al  0.47275998  0.10109319  0.02977755     1.90100
O186        O  0.53429388  0.16814925  0.49989747    -0.73000
O187        O  0.49613474  0.20696438  0.07199863    -0.72900
O188        O  0.48488596  0.18450686  0.99071432    -0.78500
O189        O  0.45586091  0.16939443  0.11328864    -0.76700
O190        O  0.47070418  0.13724765  0.04616590    -1.12900
O191        O  0.43076633  0.10218660  0.11744105    -0.72000
C192        C  0.43690590  0.07793156  0.11354923     0.98700
C193        C  0.52674392  0.14331465  0.47519769     0.95100
Al194      Al  0.50730990  0.17870520  0.03778855     1.55600
O195        O  0.42989762  0.07942384  0.49767658    -0.76700
C196        C  0.47719707  0.20017025  0.10488567     0.99200
C197        C  0.53247877  0.14525567  0.08902116     0.94100
O198        O  0.51499889  0.11852038  0.06467721    -0.82000
O199        O  0.76019387  0.00760354  0.17769299    -0.81400
C200        C  0.81818161  0.97479370  0.04324685     0.97900
O201        O  0.81034091  0.99812269  0.03884961    -0.70600
O202        O  0.75168282  0.98633870  0.07019546    -0.74200
Al203      Al  0.79609614  0.02047940  0.08373045     1.49000
C204        C  0.72754028  0.95953127  0.08661538     0.93200
O205        O  0.77401430  0.93356337  0.16390715    -0.80400
O206        O  0.85506635  0.02720858  0.17722775    -0.73900
Al207      Al  0.77041258  0.97389736  0.16699494     1.90100
O208        O  0.82905277  0.96025492  0.16745601    -0.73000
O209        O  0.86863784  0.03503891  0.08952858    -0.72900
O210        O  0.82669003  0.96851232  0.08042988    -0.78500
O211        O  0.84033289  0.06084192  0.08902955    -0.76700
O212        O  0.80191486  0.99744580  0.12648366    -1.12900
O213        O  0.78004602  0.04390221  0.12259919    -0.72000
C214        C  0.76485044  0.03438508  0.15963282     0.98700
C215        C  0.80075437  0.93353633  0.17414776     0.95100
Al216      Al  0.84115174  0.99780786  0.12854642     1.55600
O217        O  0.73161684  0.95024609  0.12476464    -0.76700
C218        C  0.86690786  0.06063022  0.07876844     0.99200
C219        C  0.83774698  0.02085165  0.21268141     0.94100
O220        O  0.80573214  0.99698985  0.21460769    -0.82000
O221        O  0.57805480  0.89117229  0.00858807    -0.81400
C222        C  0.48296007  0.84759435  0.37046202     0.97900
O223        O  0.51416334  0.85559268  0.36469295    -0.70600
O224        O  0.55860559  0.91284010  0.40089630    -0.74200
Al225      Al  0.55182676  0.86895450  0.40709170     1.49000
C226        C  0.55893598  0.93449417  0.42673114     0.93200
O227        O  0.49170566  0.88476713  0.00301730    -0.80400
O228        O  0.49660002  0.80162740  0.99642586    -0.73900
Al229      Al  0.53416608  0.88525562  0.00119705     1.90100
O230        O  0.45851536  0.83065776  0.99315463    -0.73000
O231        O  0.49379533  0.79513402  0.40963135    -0.72900
O232        O  0.46842081  0.83724462  0.40752200    -0.78500
O233        O  0.54926604  0.82527468  0.40480064    -0.76700
O234        O  0.52390495  0.85846638  0.45342734    -1.12900
O235        O  0.59407633  0.88534764  0.44160271    -0.72000
C236        C  0.60084278  0.89200919  0.48232592     0.98700
C237        C  0.46228753  0.85857667  0.00579938     0.95100
Al238      Al  0.48329131  0.81976465  0.45206481     1.55600
O239        O  0.55227357  0.92777197  0.46743103    -0.76700
C240        C  0.52149989  0.79796847  0.39687518     0.99200
C241        C  0.50984830  0.81493790  0.03312672     0.94100
O242        O  0.51902082  0.84611684  0.04135314    -0.82000
O243        O  0.69009935  0.10002283  0.24195406    -0.81400
C244        C  0.63454060  0.14601937  0.36751650     0.97900
O245        O  0.65741675  0.13873898  0.37837983    -0.70600
O246        O  0.64321561  0.08152318  0.34696140    -0.74200
Al247      Al  0.68211969  0.12265473  0.34020492     1.49000
C248        C  0.62487693  0.05747225  0.32176953     0.93200
O249        O  0.61304027  0.10857239  0.24014133    -0.80400
O250        O  0.70693171  0.19026275  0.25126265    -0.73900
Al251      Al  0.65348449  0.10633821  0.24565923     1.90100
O252        O  0.63969463  0.16406556  0.24255444    -0.73000
O253        O  0.70311167  0.19631451  0.33821150    -0.72900
O254        O  0.63432155  0.15757317  0.32967688    -0.78500
O255        O  0.72461386  0.16358715  0.34120207    -0.76700
O256        O  0.66862077  0.13357986  0.29204970    -1.12900
O257        O  0.70674462  0.10278142  0.31011309    -0.72000
C258        C  0.70815497  0.09637798  0.26956813     0.98700
C259        C  0.61540138  0.13613256  0.22818187     0.95100
Al260      Al  0.67079282  0.17383403  0.29045432     1.55600
O261        O  0.62561071  0.06270083  0.28018936    -0.76700
C262        C  0.72556313  0.19040669  0.35262549     0.99200
C263        C  0.70611767  0.17635979  0.21479414     0.94100
O264        O  0.68176102  0.14573897  0.20536081    -0.82000
O265        O  0.43083535  0.34867201  0.34581049    -0.81400
C266        C  0.49270081  0.30742968  0.22583139     0.97900
O267        O  0.48802871  0.33281446  0.21785058    -0.70600
O268        O  0.42959430  0.32862676  0.23982902    -0.74200
Al269      Al  0.47431091  0.35929826  0.25839516     1.49000
C270        C  0.40321460  0.30258962  0.25417889     0.93200
O271        O  0.43654932  0.27087997  0.33919447    -0.80400
O272        O  0.52243894  0.36012528  0.35951732    -0.73900
Al273      Al  0.43806128  0.31298286  0.33901103     1.90100
O274        O  0.49005541  0.29183472  0.35332405    -0.73000
O275        O  0.54339982  0.36657297  0.27515987    -0.72900
O276        O  0.49704914  0.30054109  0.26501427    -0.78500
O277        O  0.52005573  0.39684218  0.26705992    -0.76700
O278        O  0.47359810  0.33423015  0.30296449    -1.12900
O279        O  0.46023729  0.38665874  0.29535031    -0.72000
C280        C  0.44258787  0.37812490  0.33108904     0.98700
C281        C  0.45936777  0.26807911  0.35769790     0.95100
Al282      Al  0.50999274  0.33012500  0.31240379     1.55600
O283        O  0.40320627  0.29233695  0.29309865    -0.76700
C284        C  0.54571060  0.39384585  0.26200501     0.99200
C285        C  0.50246274  0.35631996  0.39114542     0.94100
O286        O  0.47005497  0.33368464  0.39020899    -0.82000
O287        O  0.25574825  0.23292532  0.17666706    -0.81400
C288        C  0.15923465  0.19479801  0.04093335     0.97900
O289        O  0.19096276  0.20590092  0.03308015    -0.70600
O290        O  0.23045340  0.26169225  0.07430071    -0.74200
Al291      Al  0.22975847  0.22111064  0.07470650     1.49000
C292        C  0.23423072  0.28233757  0.10390901     0.93200
O293        O  0.16898626  0.22481136  0.17614040    -0.80400
O294        O  0.18146370  0.14564890  0.15809737    -0.73900
Al295      Al  0.21228519  0.22743694  0.17224661     1.90100
O296        O  0.13856776  0.17050518  0.16277785    -0.73000
O297        O  0.17885543  0.14548950  0.07244004    -0.72900
O298        O  0.14579195  0.18003980  0.07702957    -0.78500
O299        O  0.23337438  0.18206061  0.06753009    -0.76700
O300        O  0.20249108  0.20465456  0.12163613    -1.12900
O301        O  0.27280261  0.24026094  0.10780314    -0.72000
C302        C  0.27897577  0.24074265  0.14874729     0.98700
C303        C  0.14060557  0.19708553  0.17856989     0.95100
Al304      Al  0.16442683  0.16384108  0.11802613     1.55600
O305        O  0.23045210  0.27324393  0.14436968    -0.76700
C306        C  0.20787269  0.15383028  0.05723154     0.99200
C307        C  0.19056595  0.15554499  0.19704761     0.94100
O308        O  0.19723207  0.18552767  0.20847864    -0.82000
O309        O  0.36521038  0.44133268  0.40890125    -0.81400
C310        C  0.31226915  0.49364015  0.02910054     0.97900
O311        O  0.33851140  0.49135071  0.03905287    -0.70600
O312        O  0.33129108  0.43318246  0.01924488    -0.74200
Al313      Al  0.36470713  0.47664469  0.00169064     1.49000
C314        C  0.30899636  0.40658142  0.50065254     0.93200
O315        O  0.28222951  0.43950647  0.41133469    -0.80400
O316        O  0.36987990  0.52643752  0.39602179    -0.73900
Al317      Al  0.32569797  0.44326503  0.41432839     1.90100
O318        O  0.30223994  0.49403414  0.40434426    -0.73000
O319        O  0.37563545  0.54650172  0.97989422    -0.72900
O320        O  0.30787322  0.50079249  0.99030903    -0.78500
O321        O  0.40335431  0.52085019  0.99258709    -0.76700
O322        O  0.34345768  0.47739302  0.45321107    -1.12900
O323        O  0.39256768  0.46062048  0.47134805    -0.72000
C324        C  0.39028008  0.44849521  0.43290991     0.98700
C325        C  0.27946615  0.46370255  0.39655155     0.95100
Al326      Al  0.33967447  0.51388143  0.44367510     1.55600
O327        O  0.30499593  0.40648859  0.45906267    -0.76700
C328        C  0.40272537  0.54796795  0.99193492     0.99200
C329        C  0.36397085  0.50788192  0.36204736     0.94100
O330        O  0.34429064  0.47524799  0.36383102    -0.82000
O331        O  0.53113444  0.66804125  0.11073013    -0.81400
C332        C  0.51060455  0.69069057  0.27912296     0.97900
O333        O  0.50376928  0.69570035  0.24047869    -0.70600
O334        O  0.50736198  0.70504980  0.15516950    -0.74200
Al335      Al  0.49180915  0.66692967  0.19244396     1.49000
C336        C  0.53632366  0.73062149  0.14844148     0.93200
O337        O  0.60027043  0.71062879  0.20318389    -0.80400
O338        O  0.55186937  0.61951571  0.21030585    -0.73900
Al339      Al  0.56352305  0.68851551  0.16005723     1.90100
O340        O  0.57745251  0.67806183  0.26140130    -0.73000
O341        O  0.48896346  0.60278910  0.23851720    -0.72900
O342        O  0.51731193  0.66684444  0.28667160    -0.78500
O343        O  0.46166459  0.62912607  0.22733354    -0.76700
O344        O  0.53013387  0.66614879  0.19922266    -1.12900
O345        O  0.47985343  0.63861447  0.14312272    -0.72000
C346        C  0.49884042  0.64624339  0.10921728     0.98700
C347        C  0.60224338  0.70321778  0.24293495     0.95100
Al348      Al  0.53352475  0.64359145  0.24523197     1.55600
O349        O  0.56248747  0.73021375  0.16035406    -0.76700
C350        C  0.46152046  0.60308228  0.24044700     0.99200
C351        C  0.56723417  0.62728587  0.17306582     0.94100
O352        O  0.57114629  0.65280514  0.15229360    -0.82000
O353        O  0.66846242  0.51857517  0.13563507    -0.81400
C354        C  0.69043888  0.50623815  0.46211784     0.97900
O355        O  0.69465004  0.49609273  0.49905164    -0.70600
O356        O  0.70552415  0.49920753  0.08449780    -0.74200
Al357      Al  0.66609293  0.48419806  0.04820812     1.49000
C358        C  0.73085673  0.52864851  0.09163804     0.93200
O359        O  0.70806120  0.59530640  0.05063339    -0.80400
O360        O  0.62707323  0.55327675  0.03574990    -0.73900
Al361      Al  0.68721243  0.55424894  0.08904353     1.90100
O362        O  0.68593257  0.57414794  0.98600870    -0.73000
O363        O  0.60494986  0.49014438  0.50911753    -0.72900
O364        O  0.66664835  0.51321671  0.45690390    -0.78500
O365        O  0.62613275  0.45706604  0.01229070    -0.76700
O366        O  0.66711064  0.52398060  0.04591356    -1.12900
O367        O  0.63745153  0.47053169  0.09796640    -0.72000
C368        C  0.64520293  0.48674435  0.13410012     0.98700
C369        C  0.70586631  0.59923730  0.00943267     0.95100
Al370      Al  0.64730595  0.53167784  0.50074656     1.55600
O371        O  0.72885118  0.55462982  0.08347799    -0.76700
C372        C  0.60097809  0.46099765  0.50395304     0.99200
C373        C  0.62886932  0.56084155  0.07644707     0.94100
O374        O  0.64932567  0.55828437  0.10131953    -0.82000
O375        O  0.81392471  0.81045860  0.46511954    -0.81400
C376        C  0.81400157  0.84166070  0.29282970     0.97900
O377        O  0.82614710  0.85849112  0.32824554    -0.70600
O378        O  0.83334698  0.86986724  0.41535546    -0.74200
Al379      Al  0.84284372  0.84390999  0.37484341     1.49000
C380        C  0.80616743  0.86741384  0.42912995     0.93200
O381        O  0.73275487  0.77789530  0.38824650    -0.80400
O382        O  0.77765955  0.73441702  0.37264697    -0.73900
Al383      Al  0.77510569  0.79577473  0.42371332     1.90100
O384        O  0.74962331  0.76573460  0.32671692    -0.73000
O385        O  0.83686187  0.77724197  0.33679053    -0.72900
O386        O  0.80679258  0.81050749  0.28924655    -0.78500
O387        O  0.86757619  0.83225933  0.33365889    -0.76700
O388        O  0.80304297  0.80421637  0.37783772    -1.12900
O389        O  0.85943791  0.82947332  0.42080654    -0.72000
C390        C  0.84535642  0.81913351  0.45827732     0.98700
C391        C  0.72639159  0.76545019  0.34937756     0.95100
Al392      Al  0.79362205  0.77451579  0.33485771     1.55600
O393        O  0.77825729  0.83983991  0.42304962    -0.76700
C394        C  0.86464394  0.80366491  0.32693023     0.99200
C395        C  0.76689946  0.72853227  0.41209131     0.94100
O396        O  0.76585125  0.75119154  0.43429103    -0.82000
C397        C  0.75231098  0.69401583  0.43316285    -0.05000
C398        C  0.77347891  0.68390690  0.45420394    -0.02100
C399        C  0.75890443  0.65425953  0.48174041     0.02900
C400        C  0.72286820  0.63343566  0.48662086    -0.05000
C401        C  0.70184505  0.64352241  0.46476353    -0.02100
C402        C  0.71645434  0.67383905  0.43933616     0.02900
C403        C  0.81034283  0.70462133  0.44837755     0.37500
C404        C  0.66474155  0.62335674  0.46959478     0.37500
C405        C  0.69423573  0.68471076  0.42047009     0.35900
C406        C  0.78121075  0.64618580  0.00699621     0.35900
N407        N  0.67601230  0.69301147  0.40623208    -0.38900
N408        N  0.79924281  0.64024651  0.02688153    -0.38900
N409        N  0.63517138  0.60775422  0.47320282    -0.38300
N410        N  0.83976160  0.72128159  0.44359565    -0.38300
C411        C  0.63467516  0.72126009  0.26868632    -0.05000
C412        C  0.65440637  0.70556075  0.27214209    -0.02100
C413        C  0.68273993  0.71888038  0.30072879     0.02900
C414        C  0.69160017  0.74787203  0.32775721    -0.05000
C415        C  0.66895539  0.76056265  0.32874996    -0.02100
C416        C  0.64148252  0.74827929  0.29797106     0.02900
C417        C  0.64450265  0.67416803  0.24818777     0.37500
C418        C  0.67242256  0.78450536  0.36267529     0.37500
C419        C  0.61983268  0.76303180  0.29674553     0.35900
C420        C  0.70166199  0.70109059  0.30386443     0.35900
N421        N  0.60264393  0.77492080  0.29533487    -0.38900
N422        N  0.71651968  0.68674948  0.30618938    -0.38900
N423        N  0.67468978  0.80325608  0.39010343    -0.38300
N424        N  0.63698188  0.64871950  0.23051842    -0.38300
C425        C  0.61012960  0.57658244  0.09652607    -0.05000
C426        C  0.57985318  0.55665585  0.12159901    -0.02100
C427        C  0.56698018  0.57260848  0.14981271     0.02900
C428        C  0.58314679  0.60874784  0.15139977    -0.05000
C429        C  0.61434431  0.62848534  0.12734087    -0.02100
C430        C  0.62783763  0.61254748  0.10108187     0.02900
C431        C  0.56271658  0.51960789  0.11951769     0.37500
C432        C  0.63423767  0.66565507  0.13140593     0.37500
C433        C  0.66160480  0.63355736  0.08145416     0.35900
C434        C  0.53858091  0.55181251  0.17903302     0.35900
N435        N  0.68886633  0.65119937  0.06727947    -0.38900
N436        N  0.51674814  0.53488156  0.20345415    -0.38900
N437        N  0.65024884  0.69520546  0.13461435    -0.38300
N438        N  0.54917127  0.49004324  0.11766795    -0.38300
C439        C  0.37951164  0.52633703  0.32005692    -0.05000
C440        C  0.39577922  0.51578234  0.28970326    -0.02100
C441        C  0.42115811  0.54023372  0.26074842     0.02900
C442        C  0.42981416  0.57493018  0.26212526    -0.05000
C443        C  0.40801229  0.58298647  0.28623711    -0.02100
C444        C  0.38226890  0.55832060  0.31370088     0.02900
C445        C  0.38631400  0.48014639  0.28803636     0.37500
C446        C  0.41251996  0.61693065  0.28532734     0.37500
C447        C  0.35834687  0.56581130  0.33562042     0.35900
C448        C  0.43663856  0.52926550  0.22797259     0.35900
N449        N  0.33910968  0.57165146  0.35269945    -0.38900
N450        N  0.44786226  0.51986846  0.20094418    -0.38900
N451        N  0.41539193  0.64370338  0.28519037    -0.38300
N452        N  0.37847270  0.45159899  0.28643018    -0.38300
C453        C  0.43260937  0.58044936  0.00943074    -0.05000
C454        C  0.46508391  0.58340687  0.01507358    -0.02100
C455        C  0.48937478  0.60802220  0.04439496     0.02900
C456        C  0.48152253  0.63001221  0.06730301    -0.05000
C457        C  0.45259453  0.63175160  0.05475967    -0.02100
C458        C  0.42808213  0.60707091  0.02593118     0.02900
C459        C  0.47350919  0.56098756  0.99130676     0.37500
C460        C  0.44761362  0.65848633  0.07277707     0.37500
C461        C  0.39774129  0.60856333  0.01543158     0.35900
C462        C  0.52155890  0.60958078  0.05253080     0.35900
N463        N  0.37364733  0.60995207  0.00705386    -0.38900
N464        N  0.54737759  0.61094838  0.05844612    -0.38900
N465        N  0.44373054  0.67989123  0.08692759    -0.38300
N466        N  0.48028421  0.54320120  0.97221157    -0.38300
C467        C  0.24668878  0.31798577  0.08755718    -0.05000
C468        C  0.23339286  0.32204832  0.04721247    -0.02100
C469        C  0.25332484  0.35034839  0.01897336     0.02900
C470        C  0.28706043  0.37584755  0.03082691    -0.05000
C471        C  0.29897205  0.37337691  0.07370892    -0.02100
C472        C  0.27844378  0.34518059  0.10203538     0.02900
C473        C  0.19888271  0.29657896  0.03411203     0.37500
C474        C  0.33323858  0.39852254  0.08858533     0.37500
C475        C  0.29078134  0.34329146  0.14542403     0.35900
C476        C  0.23903387  0.35262581  0.47694873     0.35900
N477        N  0.30049300  0.34183001  0.18013628    -0.38900
N478        N  0.22736327  0.35398692  0.44367251    -0.38900
N479        N  0.36052388  0.41835209  0.10078804    -0.38300
N480        N  0.17132614  0.27708030  0.02270942    -0.38300
C481        C  0.51861092  0.38035972  0.42855430    -0.05000
C482        C  0.52806063  0.41491661  0.42262191    -0.02100
C483        C  0.55174908  0.44069420  0.45096042     0.02900
C484        C  0.56872276  0.43273545  0.48370087    -0.05000
C485        C  0.55748973  0.39778052  0.49184453    -0.02100
C486        C  0.53275429  0.37176025  0.46404997     0.02900
C487        C  0.51771121  0.42544971  0.38359594     0.37500
C488        C  0.57209543  0.38871133  0.02863912     0.37500
C489        C  0.52478825  0.33669878  0.46871196     0.35900
C490        C  0.56050613  0.47585635  0.44318788     0.35900
N491        N  0.51879421  0.30878341  0.47155774    -0.38900
N492        N  0.56714579  0.50368565  0.43664438    -0.38900
N493        N  0.58321349  0.38134166  0.05804401    -0.38300
N494        N  0.51179030  0.43627719  0.35268084    -0.38300
C495        C  0.57680933  0.42041937  0.23659864    -0.05000
C496        C  0.59619425  0.41038442  0.21045336    -0.02100
C497        C  0.62119599  0.43358687  0.18039566     0.02900
C498        C  0.62662947  0.46683081  0.17448095    -0.05000
C499        C  0.61020824  0.47821727  0.20341462    -0.02100
C500        C  0.58552541  0.45524681  0.23432527     0.02900
C501        C  0.58924200  0.37550587  0.21156727     0.37500
C502        C  0.61768722  0.51323393  0.20044029     0.37500
C503        C  0.56921230  0.46799460  0.26327944     0.35900
C504        C  0.64133588  0.42302079  0.15493533     0.35900
N505        N  0.55704163  0.47951500  0.28566580    -0.38900
N506        N  0.65748448  0.41471725  0.13472006    -0.38900
N507        N  0.62371205  0.54121318  0.19863915    -0.38300
N508        N  0.58404809  0.34780188  0.21175955    -0.38300
C509        C  0.31405212  0.25304858  0.16667401    -0.05000
C510        C  0.31879623  0.23382844  0.19961962    -0.02100
C511        C  0.34796711  0.24941306  0.22754951     0.02900
C512        C  0.37254820  0.28489122  0.22368230    -0.05000
C513        C  0.36858711  0.30340605  0.18832162    -0.02100
C514        C  0.34031794  0.28711209  0.15923634     0.02900
C515        C  0.29395292  0.19748746  0.20375656     0.37500
C516        C  0.39226162  0.33994136  0.18264391     0.37500
C517        C  0.33779702  0.30578532  0.12208346     0.35900
C518        C  0.35268975  0.22858959  0.25966826     0.35900
N519        N  0.33610137  0.32045679  0.09196511    -0.38900
N520        N  0.35647939  0.21188352  0.28515134    -0.38900
N521        N  0.41091957  0.36908363  0.17796958    -0.38300
N522        N  0.27454084  0.16836448  0.20660700    -0.38300
C523        C  0.43578747  0.40147433  0.36013657    -0.05000
C524        C  0.42598324  0.39245731  0.40568656    -0.02100
C525        C  0.41388337  0.40995813  0.43143387     0.02900
C526        C  0.41478133  0.43899615  0.41475657    -0.05000
C527        C  0.43056647  0.45199998  0.37333924    -0.02100
C528        C  0.43915799  0.43252486  0.34501599     0.02900
C529        C  0.42819622  0.36547665  0.42803991     0.37500
C530        C  0.43981691  0.48653314  0.36158880     0.37500
C531        C  0.45033341  0.44408521  0.30030087     0.35900
C532        C  0.39866794  0.39693185  0.47460258     0.35900
N533        N  0.45894365  0.45321923  0.26442927    -0.38900
N534        N  0.38636682  0.38646636  0.50882849    -0.38900
N535        N  0.44834978  0.51467212  0.35348470    -0.38300
N536        N  0.42932726  0.34450087  0.44820238    -0.38300
C537        C  0.60585181  0.02358072  0.34536230    -0.05000
C538        C  0.62393877  0.01796970  0.37968456    -0.02100
C539        C  0.60628208  0.99320637  0.41257751     0.02900
C540        C  0.57141053  0.96912184  0.40775499    -0.05000
C541        C  0.55279996  0.97418956  0.37422991    -0.02100
C542        C  0.56984440  0.00171659  0.34350755     0.02900
C543        C  0.66121421  0.03709456  0.38113400     0.37500
C544        C  0.51578022  0.95260610  0.37399148     0.37500
C545        C  0.55046720  0.00756918  0.31053696     0.35900
C546        C  0.62361971  0.99330510  0.45272116     0.35900
N547        N  0.53495805  0.01211672  0.28402446    -0.38900
N548        N  0.63698240  0.99405958  0.48549256    -0.38900
N549        N  0.48615322  0.93566673  0.37451558    -0.38300
N550        N  0.69087343  0.05176726  0.38278561    -0.38300
C551        C  0.51670221  0.79386035  0.06495374    -0.05000
C552        C  0.51886547  0.76560478  0.04874385    -0.02100
C553        C  0.53288228  0.75052890  0.07491865     0.02900
C554        C  0.53798551  0.75774046  0.12019082    -0.05000
C555        C  0.53346546  0.78378677  0.13798550    -0.02100
C556        C  0.52436617  0.80291865  0.11015111     0.02900
C557        C  0.50495728  0.74984188  0.00625658     0.37500
C558        C  0.53786020  0.79050634  0.18497342     0.37500
C559        C  0.52083061  0.83024028  0.12896768     0.35900
C560        C  0.54215667  0.72748807  0.05453665     0.35900
N561        N  0.51796618  0.85198535  0.14416103    -0.38900
N562        N  0.55007187  0.71015396  0.03654408    -0.38900
N563        N  0.54143376  0.79581441  0.22248946    -0.38300
N564        N  0.49293269  0.73601112  0.47357036    -0.38300
C565        C  0.51992609  0.77031100  0.36830048    -0.05000
C566        C  0.53676483  0.75229323  0.37876593    -0.02100
C567        C  0.53219488  0.72448572  0.35185652     0.02900
C568        C  0.51075147  0.71451850  0.31405686    -0.05000
C569        C  0.49283380  0.73198993  0.30539235    -0.02100
C570        C  0.49909283  0.76057678  0.33047993     0.02900
C571        C  0.55936205  0.76282596  0.41657811     0.37500
C572        C  0.46786345  0.72146186  0.26988845     0.37500
C573        C  0.48668772  0.78202536  0.31360226     0.35900
C574        C  0.55012222  0.70680142  0.36281660     0.35900
N575        N  0.47704705  0.79827351  0.29673406    -0.38900
N576        N  0.56439329  0.69264304  0.37176160    -0.38900
N577        N  0.44826383  0.71385888  0.24151845    -0.38300
N578        N  0.57744372  0.77128547  0.44675538    -0.38300
C579        C  0.80882438  0.89656888  0.45540033    -0.05000
C580        C  0.83581999  0.91282188  0.98683714    -0.02100
C581        C  0.84275864  0.94325145  0.00741911     0.02900
C582        C  0.81861216  0.95385791  0.00561386    -0.05000
C583        C  0.79193946  0.93855408  0.47413436    -0.02100
C584        C  0.78753525  0.91041347  0.44834948     0.02900
C585        C  0.85225589  0.89543699  0.00471791     0.37500
C586        C  0.76957945  0.95196992  0.46738053     0.37500
C587        C  0.76051263  0.89545971  0.41583338     0.35900
C588        C  0.87467389  0.96328666  0.03161694     0.35900
N589        N  0.73846462  0.88422178  0.39040524    -0.38900
N590        N  0.90016392  0.97945567  0.05056568    -0.38900
N591        N  0.75193681  0.96279207  0.46051973    -0.38300
N592        N  0.86460093  0.88212252  0.02279882    -0.38300
C593        C  0.79969540  0.90384016  0.19746981    -0.05000
C594        C  0.77474074  0.88563185  0.23048364    -0.02100
C595        C  0.77889560  0.86406880  0.26005335     0.02900
C596        C  0.80685045  0.85892773  0.25616644    -0.05000
C597        C  0.82998357  0.87434326  0.22085693    -0.02100
C598        C  0.82651709  0.89672895  0.19163563     0.02900
C599        C  0.74575332  0.89043077  0.23620576     0.37500
C600        C  0.85839964  0.86858600  0.21617051     0.37500
C601        C  0.85078616  0.91248063  0.15569504     0.35900
C602        C  0.75552539  0.84884859  0.29666474     0.35900
N603        N  0.87026685  0.92486044  0.12705849    -0.38900
N604        N  0.73733337  0.83716222  0.32649453    -0.38900
N605        N  0.88102745  0.86388912  0.21269280    -0.38300
N606        N  0.72245185  0.89394304  0.24084374    -0.38300
C607        C  0.72678727  0.08003398  0.25130880    -0.05000
C608        C  0.76007789  0.10020610  0.23304518    -0.02100
C609        C  0.77191623  0.08680919  0.19950169     0.02900
C610        C  0.75067151  0.05284060  0.18439004    -0.05000
C611        C  0.71732542  0.03285357  0.20259821    -0.02100
C612        C  0.70607636  0.04585634  0.23665874     0.02900
C613        C  0.78313000  0.13382951  0.25095239     0.37500
C614        C  0.69398494  0.99874273  0.18536939     0.37500
C615        C  0.67243395  0.02392079  0.25616104     0.35900
C616        C  0.80650188  0.10726838  0.18228631     0.35900
N617        N  0.64567985  0.00586217  0.27148365    -0.38900
N618        N  0.83410842  0.12355215  0.16847035    -0.38900
N619        N  0.67541345  0.97167909  0.17141482    -0.38300
N620        N  0.80266729  0.16025125  0.26568824    -0.38300
C621        C  0.69502611  0.94006785  0.05857914    -0.05000
C622        C  0.66888547  0.90580313  0.06777321    -0.02100
C623        C  0.63921317  0.88861244  0.04047389     0.02900
C624        C  0.63533404  0.90453761  0.00262814    -0.05000
C625        C  0.66296912  0.93670505  0.99038778    -0.02100
C626        C  0.69083331  0.95555119  0.01958405     0.02900
C627        C  0.67190270  0.88804342  0.10555778     0.37500
C628        C  0.66331874  0.95011121  0.44633590     0.37500
C629        C  0.71353733  0.99170539  0.00982335     0.35900
C630        C  0.61396311  0.85315172  0.04905388     0.35900
N631        N  0.73131821  0.02051381  0.00171895    -0.38900
N632        N  0.59485697  0.82440731  0.05550975    -0.38900
N633        N  0.66360528  0.96054845  0.41143571    -0.38300
N634        N  0.67413383  0.87376664  0.13575508    -0.38300
C635        C  0.55657241  0.14528874  0.12283557    -0.05000
C636        C  0.56912026  0.12264727  0.11880381    -0.02100
C637        C  0.58608878  0.11772620  0.15441822     0.02900
C638        C  0.59235322  0.13671669  0.19386941    -0.05000
C639        C  0.58205742  0.16112067  0.19666911    -0.02100
C640        C  0.56615748  0.16677754  0.16051164     0.02900
C641        C  0.56822986  0.10736766  0.07638304     0.37500
C642        C  0.58740706  0.18029207  0.23716764     0.37500
C643        C  0.56382350  0.19737517  0.16053919     0.35900
C644        C  0.59851790  0.09424000  0.14907024     0.35900
N645        N  0.56364476  0.22271318  0.15990058    -0.38900
N646        N  0.60823658  0.07541735  0.14413599    -0.38900
N647        N  0.59143936  0.19535515  0.26957067    -0.38300
N648        N  0.56779950  0.09539670  0.04251582    -0.38300
C649        C  0.55434084  0.14253669  0.44841775    -0.05000
C650        C  0.58922576  0.16076719  0.46294065    -0.02100
C651        C  0.61525883  0.15998794  0.43814563     0.02900
C652        C  0.60714505  0.14155199  0.39843594    -0.05000
C653        C  0.57258257  0.12247373  0.38461115    -0.02100
C654        C  0.54633950  0.12248371  0.40963349     0.02900
C655        C  0.59888347  0.18020913  0.00342982     0.37500
C656        C  0.56395670  0.10290916  0.34392396     0.37500
C657        C  0.51128833  0.10200573  0.39435010     0.35900
C658        C  0.65075121  0.17940883  0.45250505     0.35900
N659        N  0.48359869  0.08514684  0.38133663    -0.38900
N660        N  0.67906943  0.19482436  0.46381365    -0.38900
N661        N  0.55703437  0.08752535  0.31136224    -0.38300
N662        N  0.60706329  0.19569473  0.03596714    -0.38300
C663        C  0.45002206  0.23849621  0.38718839    -0.05000
C664        C  0.46323500  0.21707156  0.37923595    -0.02100
C665        C  0.46019885  0.19355115  0.41152715     0.02900
C666        C  0.44464619  0.19188036  0.45269183    -0.05000
C667        C  0.42560539  0.20827307  0.45711010    -0.02100
C668        C  0.42902200  0.23233347  0.42488370     0.02900
C669        C  0.47939163  0.21842802  0.33759582     0.37500
C670        C  0.40329629  0.20105979  0.99466024     0.37500
C671        C  0.41240612  0.25187567  0.43212717     0.35900
C672        C  0.47351879  0.17125225  0.40228412     0.35900
N673        N  0.39877486  0.26705083  0.43862417    -0.38900
N674        N  0.48433850  0.15376034  0.39426543    -0.38900
N675        N  0.38557750  0.19536252  0.02494141    -0.38300
N676        N  0.49180424  0.21773897  0.30464156    -0.38300
C677        C  0.49291090  0.28389218  0.19066491    -0.05000
C678        C  0.50356228  0.26046797  0.20243143    -0.02100
C679        C  0.49305500  0.23058835  0.17757503     0.02900
C680        C  0.48139672  0.22852871  0.13424536    -0.05000
C681        C  0.47732322  0.25559872  0.11833438    -0.02100
C682        C  0.48043936  0.28167071  0.14736039     0.02900
C683        C  0.52935891  0.26925051  0.23615995     0.37500
C684        C  0.47028250  0.25706258  0.07222613     0.37500
C685        C  0.47182180  0.30645940  0.13196418     0.35900
C686        C  0.49450909  0.20218489  0.19682125     0.35900
N687        N  0.46495378  0.32624799  0.11953901    -0.38900
N688        N  0.49494963  0.17922070  0.21250385    -0.38900
N689        N  0.46566601  0.25951459  0.03531277    -0.38300
N690        N  0.55065890  0.27678900  0.26219761    -0.38300
C691        C  0.30068492  0.02149127  0.44903002    -0.05000
C692        C  0.33063749  0.03386216  0.42248018    -0.02100
C693        C  0.36380108  0.05044297  0.44158225     0.02900
C694        C  0.36771496  0.05365771  0.48773146    -0.05000
C695        C  0.33749073  0.03793143  0.51436204    -0.02100
C696        C  0.30437128  0.02290323  0.49516004     0.02900
C697        C  0.32765388  0.03108810  0.37482718     0.37500
C698        C  0.34175461  0.03041929  0.05747420     0.37500
C699        C  0.27506569  0.00102282  0.01964195     0.35900
C700        C  0.39372081  0.06686729  0.41323901     0.35900
N701        N  0.25144741  0.98695614  0.04261486    -0.38900
N702        N  0.41716972  0.08013831  0.38986848    -0.38900
N703        N  0.34431873  0.02732115  0.09488347    -0.38300
N704        N  0.32595023  0.02928160  0.33677783    -0.38300
C705        C  0.21519616  0.09164124  0.45814614    -0.05000
C706        C  0.18640486  0.09568020  0.46032024    -0.02100
C707        C  0.18327688  0.11440771  0.49459215     0.02900
C708        C  0.21099841  0.13238793  0.02305849    -0.05000
C709        C  0.24096566  0.13021042  0.01918020    -0.02100
C710        C  0.24304078  0.11024653  0.48681917     0.02900
C711        C  0.15999740  0.08125995  0.42648090     0.37500
C712        C  0.26887190  0.14772520  0.05036272     0.37500
C713        C  0.27316964  0.10715656  0.48318217     0.35900
C714        C  0.15343280  0.11762776  0.99368884     0.35900
N715        N  0.29721653  0.10471385  0.48007655    -0.38900
N716        N  0.12809329  0.11782103  0.99575748    -0.38900
N717        N  0.29126038  0.16191182  0.07503436    -0.38300
N718        N  0.13881482  0.07032486  0.39980487    -0.38300
C719        C  0.20133125  0.08513382  0.28441632    -0.05000
C720        C  0.18648872  0.07419856  0.24268664    -0.02100
C721        C  0.18197472  0.09650168  0.21495368     0.02900
C722        C  0.19318318  0.13099336  0.22834815    -0.05000
C723        C  0.20822332  0.14163083  0.27076316    -0.02100
C724        C  0.21215279  0.11880506  0.29843261     0.02900
C725        C  0.17511375  0.03939178  0.22862317     0.37500
C726        C  0.22032140  0.17615056  0.28635955     0.37500
C727        C  0.22832968  0.13048805  0.34115675     0.35900
C728        C  0.16503489  0.08273329  0.17299978     0.35900
N729        N  0.24161281  0.14053107  0.37487815    -0.38900
N730        N  0.15156493  0.07141928  0.13966877    -0.38900
N731        N  0.23005697  0.20364276  0.29908453    -0.38300
N732        N  0.16618734  0.01172296  0.21741187    -0.38300
C733        C  0.43234370  0.85975172  0.02586010    -0.05000
C734        C  0.40102333  0.82891402  0.03609622    -0.02100
C735        C  0.37562914  0.82979469  0.06201991     0.02900
C736        C  0.38079995  0.86121319  0.07833838    -0.05000
C737        C  0.40840843  0.89195949  0.06097818    -0.02100
C738        C  0.43445869  0.89137160  0.03575095     0.02900
C739        C  0.39425948  0.79578787  0.02061841     0.37500
C740        C  0.40946195  0.92405808  0.06736767     0.37500
C741        C  0.46298548  0.92350647  0.01958464     0.35900
C742        C  0.34340741  0.79815346  0.07075282     0.35900
N743        N  0.48765117  0.94995837  0.50917850    -0.38900
N744        N  0.31765324  0.77305235  0.07753315    -0.38900
N745        N  0.40978547  0.94954272  0.07110766    -0.38300
N746        N  0.38853873  0.76927363  0.00826704    -0.38300
C747        C  0.46178959  0.84890273  0.33384769    -0.05000
C748        C  0.42683547  0.82262457  0.33039325    -0.02100
C749        C  0.40504878  0.82588403  0.30055056     0.02900
C750        C  0.41688862  0.85679494  0.27713179    -0.05000
C751        C  0.45207611  0.88210351  0.27845061    -0.02100
C752        C  0.47489710  0.87698781  0.30444825     0.02900
C753        C  0.41310873  0.79170287  0.35698971     0.37500
C754        C  0.46479905  0.91365009  0.25396935     0.37500
C755        C  0.51156299  0.90061096  0.30094029     0.35900
C756        C  0.37022235  0.79734842  0.29473388     0.35900
N757        N  0.54086965  0.91914150  0.29745785    -0.38900
N758        N  0.34282878  0.77391951  0.29028641    -0.38900
N759        N  0.47553648  0.93927856  0.23516912    -0.38300
N760        N  0.40198992  0.76712399  0.37827137    -0.38300
C761        C  0.27147470  0.91784690  0.24896927    -0.05000
C762        C  0.26630648  0.91536173  0.29485228    -0.02100
C763        C  0.26222825  0.93982926  0.31733665     0.02900
C764        C  0.25654665  0.96350444  0.29392160    -0.05000
C765        C  0.25770162  0.96363273  0.24736312    -0.02100
C766        C  0.26615785  0.94143203  0.22485902     0.02900
C767        C  0.26560483  0.88762285  0.31955479     0.37500
C768        C  0.25058678  0.98660960  0.22296146     0.37500
C769        C  0.27047104  0.94361648  0.17742688     0.35900
C770        C  0.26466212  0.94065492  0.36522939     0.35900
N771        N  0.27378976  0.94523957  0.13949349    -0.38900
N772        N  0.26683071  0.94063770  0.40323750    -0.38900
N773        N  0.24491639  0.00504844  0.20356736    -0.38300
N774        N  0.26434666  0.86563482  0.34023385    -0.38300
C775        C  0.39971196  0.98601178  0.19078556    -0.05000
C776        C  0.38710280  0.00806932  0.19977931    -0.02100
C777        C  0.40118264  0.04020606  0.17818898     0.02900
C778        C  0.42836779  0.05055252  0.14773476    -0.05000
C779        C  0.44463411  0.03068120  0.14552932    -0.02100
C780        C  0.43005350  0.99854846  0.16658860     0.02900
C781        C  0.36015506  0.99796118  0.23214150     0.37500
C782        C  0.47535384  0.04153238  0.11955555     0.37500
C783        C  0.44496459  0.97722329  0.16062640     0.35900
C784        C  0.38656363  0.06152369  0.18598013     0.35900
N785        N  0.45690496  0.96037679  0.15499255    -0.38900
N786        N  0.37489855  0.07854884  0.19231628    -0.38900
N787        N  0.49928477  0.04848492  0.09843733    -0.38300
N788        N  0.33952860  0.99078392  0.25912444    -0.38300
C789        C  0.89272102  0.80126987  0.30443220    -0.05000
C790        C  0.88459150  0.77590775  0.27182960    -0.02100
C791        C  0.91052231  0.77791737  0.24408689     0.02900
C792        C  0.94503285  0.80422427  0.24969980    -0.05000
C793        C  0.95376512  0.82735543  0.28496845    -0.02100
C794        C  0.92774718  0.82604857  0.31215253     0.02900
C795        C  0.84932032  0.74870829  0.26460474     0.37500
C796        C  0.98938322  0.85380370  0.29150578     0.37500
C797        C  0.93728317  0.85038821  0.34789033     0.35900
C798        C  0.90118389  0.75377806  0.20809777     0.35900
N799        N  0.94543771  0.87000711  0.37631243    -0.38900
N800        N  0.89288507  0.73423363  0.17958761    -0.38900
N801        N  0.01783560  0.87482841  0.29654674    -0.38300
N802        N  0.82130660  0.72682729  0.25882956    -0.38300
C803        C  0.91538522  0.81336459  0.05020974    -0.05000
C804        C  0.88030303  0.78707740  0.04952069    -0.02100
C805        C  0.85657642  0.79043754  0.02291945     0.02900
C806        C  0.86755581  0.81850487  0.49396210    -0.05000
C807        C  0.90218128  0.84559811  0.49636951    -0.02100
C808        C  0.92616702  0.84312846  0.02411260     0.02900
C809        C  0.86829821  0.75636205  0.07579505     0.37500
C810        C  0.91426721  0.87647818  0.46998167     0.37500
C811        C  0.95992725  0.87311657  0.52801090     0.35900
C812        C  0.82038752  0.76458927  0.02516528     0.35900
N813        N  0.98732612  0.89688672  0.53041108    -0.38900
N814        N  0.79148986  0.74414707  0.02789396    -0.38900
N815        N  0.92389292  0.90125345  0.44947997    -0.38300
N816        N  0.85815733  0.73138673  0.09598948    -0.38300
C817        C  0.11412597  0.92455209  0.47116627    -0.05000
C818        C  0.07972466  0.90710409  0.45490467    -0.02100
C819        C  0.05269251  0.88022771  0.47946501     0.02900
C820        C  0.06059569  0.87336404  0.02346516    -0.05000
C821        C  0.09457356  0.89252411  0.03979321    -0.02100
C822        C  0.12047375  0.92044163  0.01582376     0.02900
C823        C  0.07167801  0.91585131  0.41241087     0.37500
C824        C  0.10381871  0.88268338  0.08055554     0.37500
C825        C  0.15318984  0.94287029  0.03681085     0.35900
C826        C  0.01787569  0.86264222  0.46267540     0.35900
N827        N  0.17886961  0.96094422  0.05435015    -0.38900
N828        N  0.99020331  0.84837041  0.44891971    -0.38900
N829        N  0.11282550  0.87536653  0.11211764    -0.38300
N830        N  0.06496052  0.92260395  0.37856784    -0.38300
C831        C  0.08620369  0.89083110  0.21722573    -0.05000
C832        C  0.10841185  0.88283632  0.24002184    -0.02100
C833        C  0.12801717  0.90317806  0.27579643     0.02900
C834        C  0.12428131  0.93064015  0.29071270    -0.05000
C835        C  0.10321720  0.93942911  0.26621725    -0.02100
C836        C  0.08657754  0.92120926  0.22794813     0.02900
C837        C  0.11129551  0.85358028  0.22744544     0.37500
C838        C  0.09689510  0.96620504  0.28065907     0.37500
C839        C  0.07032072  0.93431853  0.19925317     0.35900
C840        C  0.15203017  0.89547415  0.29662622     0.35900
N841        N  0.05768833  0.94495419  0.17619643    -0.38900
N842        N  0.17100379  0.88890061  0.31278351    -0.38900
N843        N  0.09159178  0.98737303  0.29188702    -0.38300
N844        N  0.11379614  0.83037022  0.21763784    -0.38300
C845        C  0.06466481  0.76451649  0.06895501    -0.05000
C846        C  0.07879136  0.74736232  0.09082087    -0.02100
C847        C  0.09409634  0.73203036  0.06652180     0.02900
C848        C  0.09506920  0.73285499  0.01925144    -0.05000
C849        C  0.08419101  0.75313478  0.99782984    -0.02100
C850        C  0.06937992  0.76899548  0.02240973     0.02900
C851        C  0.07566982  0.74338492  0.13846769     0.37500
C852        C  0.08660514  0.75606582  0.44993546     0.37500
C853        C  0.05893543  0.78989482  0.99908092     0.35900
C854        C  0.10783957  0.71466528  0.09161391     0.35900
N855        N  0.05097841  0.80639324  0.97924297    -0.38900
N856        N  0.11778968  0.70107398  0.11401705    -0.38900
N857        N  0.08886399  0.75893591  0.41195844    -0.38300
N858        N  0.07316891  0.74009890  0.17639621    -0.38300
C859        C  0.19127732  0.72538299  0.07806309    -0.05000
C860        C  0.20144332  0.71897182  0.11886293    -0.02100
C861        C  0.22567975  0.74658038  0.14516545     0.02900
C862        C  0.24011730  0.78129239  0.13067344    -0.05000
C863        C  0.22649966  0.78723308  0.09180242    -0.02100
C864        C  0.20279266  0.75950343  0.06553017     0.02900
C865        C  0.18838833  0.68380397  0.13251274     0.37500
C866        C  0.23720656  0.82175755  0.07736715     0.37500
C867        C  0.19104371  0.76642244  0.02451922     0.35900
C868        C  0.23612575  0.73849256  0.18637431     0.35900
N869        N  0.18233175  0.77293011  0.99203710    -0.38900
N870        N  0.24452529  0.73188382  0.21906707    -0.38900
N871        N  0.24553965  0.84915370  0.06549824    -0.38300
N872        N  0.17792228  0.65572732  0.14328992    -0.38300
C873        C  0.22767034  0.75116143  0.38081402    -0.05000
C874        C  0.21809453  0.75918256  0.34016444    -0.02100
C875        C  0.24312404  0.78431103  0.31203368     0.02900
C876        C  0.27813674  0.80122285  0.32339677    -0.05000
C877        C  0.28791287  0.79384188  0.36416861    -0.02100
C878        C  0.26272154  0.76891235  0.39289150     0.02900
C879        C  0.18256698  0.74067257  0.32593102     0.37500
C880        C  0.32377521  0.81212258  0.37668708     0.37500
C881        C  0.27271112  0.76231741  0.43541091     0.35900
C882        C  0.23267916  0.79315332  0.27134332     0.35900
N883        N  0.28059467  0.75716125  0.46947846    -0.38900
N884        N  0.22412688  0.80033313  0.23923898    -0.38900
N885        N  0.35238571  0.82678961  0.38683981    -0.38300
N886        N  0.15442201  0.72602606  0.31384059    -0.38300
C887        C  0.93544520  0.69851244  0.18453477    -0.05000
C888        C  0.93591335  0.69802924  0.23184045    -0.02100
C889        C  0.91944563  0.66678235  0.25567996     0.02900
C890        C  0.90237262  0.63533998  0.23325842    -0.05000
C891        C  0.90018786  0.63592022  0.18618961    -0.02100
C892        C  0.91557608  0.66720246  0.16244159     0.02900
C893        C  0.95431173  0.72931696  0.25737463     0.37500
C894        C  0.88509975  0.60471164  0.16043903     0.37500
C895        C  0.91296861  0.66676438  0.11466996     0.35900
C896        C  0.92361944  0.66705439  0.30322276     0.35900
N897        N  0.91076004  0.66631959  0.07663561    -0.38900
N898        N  0.92734000  0.66726799  0.34098449    -0.38900
N899        N  0.87482598  0.58137050  0.13710907    -0.38300
N900        N  0.96878395  0.75303692  0.27998528    -0.38300
C901        C  0.80761495  0.52599708  0.16949818    -0.05000
C902        C  0.79738226  0.54979716  0.17933174    -0.02100
C903        C  0.77517972  0.55352816  0.15088772     0.02900
C904        C  0.76149778  0.53201872  0.11364666    -0.05000
C905        C  0.77359238  0.50985842  0.10226455    -0.02100
C906        C  0.79703219  0.50721647  0.12994629     0.02900
C907        C  0.80814859  0.56937893  0.21999776     0.37500
C908        C  0.76108195  0.48897566  0.06282917     0.37500
C909        C  0.80846101  0.48358242  0.11930663     0.35900
C910        C  0.76452350  0.57771415  0.16227603     0.35900
N911        N  0.81754387  0.46469449  0.11080665    -0.38900
N912        N  0.75630622  0.59714687  0.17161083    -0.38900
N913        N  0.75080929  0.47218210  0.03150884    -0.38300
N914        N  0.81584594  0.58522803  0.25220379    -0.38300
C915        C  0.71593119  0.51168166  0.42650751    -0.05000
C916        C  0.70625233  0.49461120  0.38537654    -0.02100
C917        C  0.73163140  0.49626302  0.35588079     0.02900
C918        C  0.76695895  0.51531783  0.36703478    -0.05000
C919        C  0.77642438  0.53305077  0.40768683    -0.02100
C920        C  0.75133063  0.53153184  0.43665428     0.02900
C921        C  0.67021785  0.47458103  0.37400852     0.37500
C922        C  0.81207099  0.55153341  0.42163928     0.37500
C923        C  0.76254618  0.55078235  0.47743834     0.35900
C924        C  0.72144111  0.47855632  0.31397093     0.35900
N925        N  0.77289362  0.56717508  0.00892967    -0.38900
N926        N  0.71337978  0.46445567  0.28043402    -0.38900
N927        N  0.84017684  0.56624076  0.43385575    -0.38300
N928        N  0.64141669  0.45869448  0.36494535    -0.38300
C929        C  0.96728315  0.57602300  0.35072031    -0.05000
C930        C  0.99962676  0.59223693  0.32976076    -0.02100
C931        C  0.03006938  0.60617063  0.35496182     0.02900
C932        C  0.02897003  0.60534840  0.40208187    -0.05000
C933        C  0.99660759  0.58680224  0.42285491    -0.02100
C934        C  0.96608317  0.57219801  0.39753848     0.02900
C935        C  0.00201243  0.59672151  0.28219391     0.37500
C936        C  0.99437007  0.58381994  0.47055663     0.37500
C937        C  0.93348818  0.55375167  0.42067869     0.35900
C938        C  0.06252352  0.62167750  0.33132860     0.35900
N939        N  0.90800918  0.53956076  0.44029291    -0.38900
N940        N  0.08783466  0.63400089  0.31130686    -0.38900
N941        N  0.99245437  0.58129031  0.50858620    -0.38300
N942        N  0.00400090  0.60048682  0.24432166    -0.38300
C943        C  0.75089147  0.21299260  0.38586361    -0.05000
C944        C  0.75581194  0.19868310  0.42468653    -0.02100
C945        C  0.77754887  0.22012074  0.45826213     0.02900
C946        C  0.79447618  0.25613299  0.45353691    -0.05000
C947        C  0.79141016  0.27026856  0.41325100    -0.02100
C948        C  0.76919823  0.24877200  0.38000937     0.02900
C949        C  0.73722147  0.16187271  0.43191143     0.37500
C950        C  0.81193143  0.30686652  0.40482910     0.37500
C951        C  0.76565045  0.26353655  0.33935757     0.35900
C952        C  0.78129464  0.20463854  0.49817069     0.35900
N953        N  0.76281579  0.27530855  0.30698421    -0.38900
N954        N  0.78425371  0.19212640  0.52976434    -0.38900
N955        N  0.82820844  0.33594740  0.39750575    -0.38300
N956        N  0.72284012  0.13270146  0.43889193    -0.38300
C957        C  0.78776068  0.25127933  0.13225404    -0.05000
C958        C  0.75386336  0.23083498  0.11512379    -0.02100
C959        C  0.72766274  0.20387548  0.14040067     0.02900
C960        C  0.73447457  0.19788021  0.18362597    -0.05000
C961        C  0.76844153  0.21713978  0.19995460    -0.02100
C962        C  0.79502469  0.24259511  0.17385910     0.02900
C963        C  0.74532689  0.23717419  0.07145845     0.37500
C964        C  0.77614392  0.21233163  0.24489517     0.37500
C965        C  0.82955859  0.26001517  0.19121710     0.35900
C966        C  0.69316442  0.18381723  0.12283007     0.35900
N967        N  0.85662858  0.27263558  0.20650949    -0.38900
N968        N  0.66574280  0.16789070  0.10856295    -0.38900
N969        N  0.78287959  0.20980608  0.28090894    -0.38300
N970        N  0.73799327  0.24209210  0.03688103    -0.38300
C971        C  0.88649853  0.41549381  0.12954032    -0.05000
C972        C  0.89593868  0.44962392  0.12069037    -0.02100
C973        C  0.89090623  0.46883011  0.15317295     0.02900
C974        C  0.87570354  0.45365351  0.19433132    -0.05000
C975        C  0.86905840  0.42065186  0.20440140    -0.02100
C976        C  0.87523590  0.40196890  0.17246336     0.02900
C977        C  0.90912030  0.46446542  0.07751143     0.37500
C978        C  0.85600849  0.40603454  0.24767480     0.37500
C979        C  0.87017767  0.36875331  0.18381134     0.35900
C980        C  0.90025128  0.50373002  0.14296778     0.35900
N981        N  0.86645448  0.34239702  0.19304044    -0.38900
N982        N  0.90814818  0.53149761  0.13353046    -0.38900
N983        N  0.84561053  0.39446847  0.28221934    -0.38300
N984        N  0.91975554  0.47636883  0.04316839    -0.38300
C985        C  0.86201717  0.41565440  0.45036456    -0.05000
C986        C  0.83846342  0.42669560  0.46091247    -0.02100
C987        C  0.83626681  0.45102235  0.43416535     0.02900
C988        C  0.85736583  0.46487721  0.39685106    -0.05000
C989        C  0.88201176  0.45567772  0.38744201    -0.02100
C990        C  0.88442096  0.43135574  0.41372434     0.02900
C991        C  0.81580622  0.41314394  0.49887262     0.37500
C992        C  0.90518354  0.47139776  0.35025679     0.37500
C993        C  0.91007734  0.42271552  0.40206750     0.35900
C994        C  0.81114521  0.46078962  0.44380429     0.35900
N995        N  0.93064452  0.41602686  0.39254306    -0.38900
N996        N  0.79115403  0.46869595  0.45111884    -0.38900
N997        N  0.92391329  0.48379591  0.32088217    -0.38300
N998        N  0.79857833  0.40366120  0.02962021    -0.38300
C999        C  0.92542132  0.29672165  0.44740621    -0.05000
C1000       C  0.91952477  0.29026874  0.40163145    -0.02100
C1001       C  0.92591179  0.26579562  0.38079843     0.02900
C1002       C  0.93448149  0.24517767  0.40655173    -0.05000
C1003       C  0.93557368  0.24900765  0.45284601    -0.02100
C1004       C  0.93600622  0.27719592  0.47176222     0.02900
C1005       C  0.90775805  0.30912329  0.37620898     0.37500
C1006       C  0.93868243  0.22529137  0.48185397     0.37500
C1007       C  0.94829762  0.28678901  0.01718878     0.35900
C1008       C  0.92477068  0.26263376  0.33329387     0.35900
N1009       N  0.95808635  0.29259956  0.05313453    -0.38900
N1010       N  0.92389344  0.26005075  0.29528656    -0.38900
N1011       N  0.94111470  0.20741740  0.50678921    -0.38300
N1012       N  0.89841519  0.32431716  0.35594906    -0.38300
C1013       C  0.10946375  0.19509449  0.20011468    -0.05000
C1014       C  0.07913124  0.16274412  0.20808847    -0.02100
C1015       C  0.05073626  0.16081392  0.22997670     0.02900
C1016       C  0.05204104  0.19058590  0.24570444    -0.05000
C1017       C  0.07970954  0.22274035  0.23247759    -0.02100
C1018       C  0.10876933  0.22520944  0.21127349     0.02900
C1019       C  0.07648008  0.13077243  0.19483931     0.37500
C1020       C  0.07741950  0.25311175  0.23822240     0.37500
C1021       C  0.13751021  0.25902515  0.20072476     0.35900
C1022       C  0.01891587  0.12809355  0.23328091     0.35900
N1023       N  0.16033828  0.28607638  0.19238339    -0.38900
N1024       N  0.99355260  0.10189164  0.23404677    -0.38900
N1025       N  0.07493147  0.27710754  0.24102683    -0.38300
N1026       N  0.07403029  0.10512245  0.18440493    -0.38300
C1027       C  0.13639183  0.19878439  0.00887457    -0.05000
C1028       C  0.13825307  0.19544645  0.46377785    -0.02100
C1029       C  0.11399032  0.19635869  0.43511982     0.02900
C1030       C  0.08637350  0.19885981  0.45252432    -0.05000
C1031       C  0.08487258  0.20253907  0.99834315    -0.02100
C1032       C  0.11015986  0.20368219  0.02589775     0.02900
C1033       C  0.16494540  0.19053387  0.44561775     0.37500
C1034       C  0.05655392  0.20387230  0.01888931     0.37500
C1035       C  0.11010512  0.21263701  0.07178133     0.35900
C1036       C  0.11809797  0.19574654  0.38776618     0.35900
N1037       N  0.10938218  0.22068579  0.10768522    -0.38900
N1038       N  0.12151494  0.19560382  0.34994883    -0.38900
N1039       N  0.03420062  0.20495899  0.03562893    -0.38300
N1040       N  0.18615306  0.18644104  0.43107382    -0.38300
C1041       C  0.94406851  0.13206196  0.48662752    -0.05000
C1042       C  0.91050533  0.12685948  0.98660184    -0.02100
C1043       C  0.88600926  0.10535733  0.01826639     0.02900
C1044       C  0.89443401  0.08808324  0.05031793    -0.05000
C1045       C  0.92825540  0.09368783  0.05042782    -0.02100
C1046       C  0.95261554  0.11482248  0.51798512     0.02900
C1047       C  0.90028501  0.14058536  0.45034994     0.37500
C1048       C  0.93833051  0.07729850  0.08321669     0.37500
C1049       C  0.98616698  0.11824086  0.51654316     0.35900
C1050       C  0.85165655  0.09991301  0.01568954     0.35900
N1051       N  0.01269258  0.12045719  0.51515990    -0.38900
N1052       N  0.82439591  0.09586385  0.01320659    -0.38900
N1053       N  0.94642066  0.06418484  0.10920836    -0.38300
N1054       N  0.89191033  0.15133014  0.42157023    -0.38300
C1055       C  0.85718476  0.04199247  0.25178717    -0.05000
C1056       C  0.85052300  0.06661709  0.26960241    -0.02100
C1057       C  0.87700613  0.09627522  0.29100009     0.02900
C1058       C  0.90900207  0.09919495  0.29994488    -0.05000
C1059       C  0.91236362  0.07038521  0.29046715    -0.02100
C1060       C  0.88757576  0.04309757  0.26438022     0.02900
C1061       C  0.81574964  0.05965467  0.26958329     0.37500
C1062       C  0.94120662  0.06840574  0.30703501     0.37500
C1063       C  0.89324390  0.01588128  0.25027054     0.35900
C1064       C  0.87086789  0.12312922  0.30490533     0.35900
N1065       N  0.89760077  0.99411948  0.23886953    -0.38900
N1066       N  0.86598445  0.14463565  0.31585914    -0.38900
N1067       N  0.96377417  0.06625905  0.32076762    -0.38300
N1068       N  0.78754492  0.05284486  0.27220610    -0.38300
C1069       C  0.04225391  0.38838383  0.13730169    -0.05000
C1070       C  0.01250789  0.36647740  0.16246945    -0.02100
C1071       C  0.97926209  0.35282856  0.14446411     0.02900
C1072       C  0.97511837  0.35914114  0.10012034    -0.05000
C1073       C  0.00524212  0.37773649  0.07347837    -0.02100
C1074       C  0.03844307  0.39290344  0.09227500     0.02900
C1075       C  0.01604550  0.35834872  0.20763498     0.37500
C1076       C  0.00242702  0.38166022  0.02642588     0.37500
C1077       C  0.06854116  0.41481952  0.06578722     0.35900
C1078       C  0.94970189  0.33478925  0.17298397     0.35900
N1079       N  0.09243067  0.43232579  0.04445317    -0.38900
N1080       N  0.92673704  0.32098056  0.19695881    -0.38900
N1081       N  0.00039678  0.38489442  0.98890007    -0.38300
N1082       N  0.01833580  0.35119949  0.24352385    -0.38300
C1083       C  0.09135953  0.37726813  0.30418958    -0.05000
C1084       C  0.10863821  0.35836919  0.30535513    -0.02100
C1085       C  0.09338145  0.32602084  0.32614570     0.02900
C1086       C  0.06081166  0.31201183  0.34513557    -0.05000
C1087       C  0.04733418  0.33350452  0.35221305    -0.02100
C1088       C  0.06222527  0.36593718  0.33145884     0.02900
C1089       C  0.14174390  0.37113452  0.28444914     0.37500
C1090       C  0.02042235  0.32380448  0.38436078     0.37500
C1091       C  0.04665028  0.38663228  0.33711939     0.35900
C1092       C  0.11093216  0.30689424  0.32779105     0.35900
N1093       N  0.03402818  0.40296764  0.34181754    -0.38900
N1094       N  0.12488343  0.29162730  0.32940813    -0.38900
N1095       N  0.00041692  0.31775985  0.41179041    -0.38300
N1096       N  0.16792702  0.37998279  0.26779156    -0.38300
C1097       C  0.21518713  0.46497700  0.29581672    -0.05000
C1098       C  0.23609255  0.45096325  0.28736787    -0.02100
C1099       C  0.25359263  0.44617818  0.32218085     0.02900
C1100       C  0.25249639  0.45787664  0.36498421    -0.05000
C1101       C  0.23157150  0.47174287  0.37354191    -0.02100
C1102       C  0.21198801  0.47414360  0.33942345     0.02900
C1103       C  0.24138523  0.44332688  0.24250622     0.37500
C1104       C  0.23106688  0.48459443  0.41720064     0.37500
C1105       C  0.18848670  0.48592192  0.34947747     0.35900
C1106       C  0.27446577  0.43119143  0.31294731     0.35900
N1107       N  0.16970101  0.49522971  0.35758665    -0.38900
N1108       N  0.29077089  0.41899498  0.30480358    -0.38900
N1109       N  0.23083073  0.49517744  0.45182704    -0.38300
N1110       N  0.24567999  0.43728428  0.20680365    -0.38300
C1111       C  0.28491386  0.48708887  0.06189082    -0.05000
C1112       C  0.29233387  0.50629152  0.10091996    -0.02100
C1113       C  0.26534783  0.50322478  0.12798484     0.02900
C1114       C  0.23020289  0.48172872  0.11534042    -0.05000
C1115       C  0.22314037  0.46170225  0.07661255    -0.02100
C1116       C  0.25018944  0.46377845  0.05099853     0.02900
C1117       C  0.32785144  0.53010485  0.11250357     0.37500
C1118       C  0.18810365  0.43919656  0.06189373     0.37500
C1119       C  0.24269544  0.44127295  0.51363859     0.35900
C1120       C  0.27439158  0.52190850  0.16932294     0.35900
N1121       N  0.23537088  0.42251980  0.48434335    -0.38900
N1122       N  0.28176599  0.53673240  0.20236673    -0.38900
N1123       N  0.16028845  0.42123611  0.04978821    -0.38300
N1124       N  0.35620931  0.54912882  0.12157047    -0.38300
C1125       C  0.12821829  0.58068310  0.05640340    -0.05000
C1126       C  0.14167022  0.55959348  0.04703528    -0.02100
C1127       C  0.14005589  0.53636466  0.07908762     0.02900
C1128       C  0.12550717  0.53451877  0.12122928    -0.05000
C1129       C  0.11060095  0.55454679  0.12981484    -0.02100
C1130       C  0.11170775  0.57734945  0.09740196     0.02900
C1131       C  0.15726708  0.56190040  0.00434909     0.37500
C1132       C  0.09653139  0.55382060  0.17313555     0.37500
C1133       C  0.09768508  0.59888980  0.10774069     0.35900
C1134       C  0.15402610  0.51479292  0.06869096     0.35900
N1135       N  0.08642856  0.61586177  0.11684689    -0.38900
N1136       N  0.16543002  0.49787348  0.06011264    -0.38900
N1137       N  0.08549379  0.55340277  0.20773185    -0.38300
N1138       N  0.16961273  0.56355630  0.46993496    -0.38300
C1139       C  0.14096741  0.55470316  0.30078114    -0.05000
C1140       C  0.12194374  0.54615686  0.34079016    -0.02100
C1141       C  0.12125450  0.57184190  0.36645086     0.02900
C1142       C  0.14054319  0.60679200  0.35392213    -0.05000
C1143       C  0.15816737  0.61534308  0.31331575    -0.02100
C1144       C  0.15764741  0.58952343  0.28636196     0.02900
C1145       C  0.10352959  0.51108261  0.35679518     0.37500
C1146       C  0.17838412  0.65101921  0.30024463     0.37500
C1147       C  0.17370470  0.59910331  0.24320002     0.35900
C1148       C  0.10035314  0.56212921  0.40615592     0.35900
N1149       N  0.18627205  0.60662074  0.20860856    -0.38900
N1150       N  0.08340570  0.55409153  0.43753940    -0.38900
N1151       N  0.19475875  0.67951254  0.28996008    -0.38300
N1152       N  0.08878540  0.48318574  0.36982074    -0.38300
O1153       O  0.07316657  0.42941997  0.69098915    -0.81400
C1154       C  0.19641064  0.46953526  0.75912704     0.97900
O1155       O  0.18201637  0.44602846  0.72975458    -0.70600
O1156       O  0.11650243  0.40362794  0.73603877    -0.74200
Al1157     Al  0.14336823  0.43291736  0.69071956     1.49000
C1158       C  0.10195917  0.40562918  0.77014263     0.93200
O1159       O  0.12034313  0.49674398  0.77654236    -0.80400
O1160       O  0.16159734  0.52126605  0.66083585    -0.73900
Al1161     Al  0.10249987  0.46398868  0.72991459     1.90100
O1162       O  0.16584457  0.53582205  0.74528936    -0.73000
O1163       O  0.20795389  0.50135904  0.67244305    -0.72900
O1164       O  0.19511341  0.49691130  0.75806689    -0.78500
O1165       O  0.17155512  0.45484481  0.64017211    -0.76700
O1166       O  0.14106935  0.46851960  0.70982613    -1.12900
O1167       O  0.10384046  0.41474602  0.65152491    -0.72000
C1168       C  0.07532832  0.41221198  0.66032439     0.98700
C1169       C  0.14262523  0.52779921  0.77312403     0.95100
Al1170     Al  0.17886852  0.50976520  0.70925662     1.55600
O1171       O  0.09609972  0.43004163  0.77438974    -0.76700
C1172       C  0.20189118  0.47945252  0.64341571     0.99200
C1173       C  0.13140938  0.51638707  0.65755758     0.94100
O1174       O  0.10712746  0.49769627  0.68518645    -0.76600
O1175       O  0.97679426  0.18631545  0.95126180    -0.81400
C1176       C  0.02724773  0.18772154  0.78153948     0.97900
O1177       O  0.02050375  0.16591576  0.81158993    -0.70600
O1178       O  0.04754632  0.17948889  0.89025169    -0.74200
Al1179     Al  0.00126443  0.15804780  0.86902401     1.49000
C1180       C  0.05879750  0.19797718  0.92398372     0.93200
O1181       O  0.04599868  0.26158573  0.88598925    -0.80400
O1182       O  0.94683143  0.21121761  0.85543229    -0.73900
Al1183     Al  0.01109931  0.22255353  0.91663157     1.90100
O1184       O  0.01374340  0.25662994  0.82892605    -0.73000
O1185       O  0.94664772  0.16118721  0.80568052    -0.72900
O1186       O  0.01499599  0.20719725  0.78287601    -0.78500
O1187       O  0.95635300  0.12863425  0.84843625    -0.76700
O1188       O  0.99810694  0.19596113  0.86895173    -1.12900
O1189       O  0.98198346  0.14352373  0.92698305    -0.72000
C1190       C  0.96938140  0.15550193  0.95373071     0.98700
C1191       C  0.03932795  0.27479729  0.85370228     0.95100
Al1192     Al  0.98193682  0.20771941  0.82214398     1.55600
O1193       O  0.04473221  0.21392994  0.93672212    -0.76700
C1194       C  0.93834042  0.13164603  0.81965467     0.99200
C1195       C  0.95442201  0.23039249  0.88901119     0.94100
O1196       O  0.98126474  0.23865209  0.90997465    -0.82000
O1197       O  0.89353568  0.29613105  0.00592308    -0.81400
C1198       C  0.88090799  0.39148196  0.59260136     0.97900
O1199       O  0.90302957  0.39937533  0.56112683    -0.70600
O1200       O  0.93951473  0.36928838  0.55435555    -0.74200
Al1201     Al  0.90832810  0.37059200  0.51608969     1.49000
C1202       C  0.94053887  0.34860854  0.58058902     0.93200
O1203       O  0.84617759  0.28951455  0.60809855    -0.80400
O1204       O  0.81569012  0.30799528  0.99429284    -0.73900
Al1205     Al  0.87069372  0.29680129  0.55409234     1.90100
O1206       O  0.80669427  0.29616026  0.58010456    -0.73000
O1207       O  0.84464851  0.37590999  0.01038225    -0.72900
O1208       O  0.85201216  0.36354727  0.59292724    -0.78500
O1209       O  0.88569469  0.38050837  0.97084176    -0.76700
O1210       O  0.87149108  0.33443916  0.53824066    -1.12900
O1211       O  0.91825616  0.34528722  0.97127614    -0.72000
C1212       C  0.91146172  0.31448478  0.97481730     0.98700
C1213       C  0.81513419  0.28076589  0.60661195     0.95100
Al1214     Al  0.83317492  0.33559175  0.54407105     1.55600
O1215       O  0.91349808  0.31977863  0.58820919    -0.76700
C1216       C  0.86430197  0.38947323  0.97824926     0.99200
C1217       C  0.81462723  0.27957419  0.99033732     0.94100
O1218       O  0.82975838  0.26987505  0.51809528    -0.82000
O1219       O  0.90085854  0.58355124  0.73756329    -0.81400
C1220       C  0.85044813  0.48432999  0.86305698     0.97900
O1221       O  0.85473437  0.51417579  0.87132750    -0.70600
O1222       O  0.91147500  0.56728432  0.84324057    -0.74200
Al1223     Al  0.86585448  0.55314853  0.83089961     1.49000
C1224       C  0.93494308  0.56521435  0.82466925     0.93200
O1225       O  0.89295254  0.49906986  0.74354612    -0.80400
O1226       O  0.80768588  0.50224947  0.73744898    -0.73900
Al1227     Al  0.89303388  0.54007057  0.74470744     1.90100
O1228       O  0.83849484  0.46565576  0.73619287    -0.73000
O1229       O  0.79401937  0.49011061  0.82484612    -0.72900
O1230       O  0.84008734  0.46976210  0.82581965    -0.78500
O1231       O  0.82043650  0.54511766  0.82843420    -0.76700
O1232       O  0.86127260  0.52689759  0.78584077    -1.12900
O1233       O  0.87864043  0.59414792  0.79483439    -0.72000
C1234       C  0.89294813  0.60260640  0.75697462     0.98700
C1235       C  0.86853764  0.47312950  0.72682015     0.95100
Al1236     Al  0.82330137  0.48542707  0.78151357     1.55600
O1237       O  0.93109134  0.55470293  0.78518875    -0.76700
C1238       C  0.79452360  0.51670881  0.83746822     0.99200
C1239       C  0.82524955  0.51779700  0.70347465     0.94100
O1240       O  0.85718692  0.52734924  0.69931098    -0.82000
O1241       O  0.09565348  0.68170446  0.51278283    -0.81400
C1242       C  0.14638296  0.63395267  0.88709918     0.97900
O1243       O  0.14011051  0.65818707  0.87871836    -0.70600
O1244       O  0.08385547  0.65362748  0.90968908    -0.74200
Al1245     Al  0.12939905  0.68664763  0.91936919     1.49000
C1246       C  0.06106200  0.62711160  0.92830246     0.93200
O1247       O  0.10685296  0.60679902  0.50969143    -0.80400
O1248       O  0.19039732  0.69933124  0.51046021    -0.73900
Al1249     Al  0.10507361  0.64701884  0.50665709     1.90100
O1250       O  0.16179463  0.63131276  0.51352711    -0.73000
O1251       O  0.20192472  0.69929353  0.92321337    -0.72900
O1252       O  0.15783074  0.63155306  0.92435402    -0.78500
O1253       O  0.17413996  0.72569977  0.91919875    -0.76700
O1254       O  0.13559403  0.66630842  0.96446446    -1.12900
O1255       O  0.11733867  0.71524281  0.95590432    -0.72000
C1256       C  0.10328971  0.70911744  0.99397915     0.98700
C1257       C  0.13256578  0.60710749  0.52417234     0.95100
Al1258     Al  0.17442999  0.66545673  0.96775352     1.55600
O1259       O  0.06586286  0.62039701  0.96736132    -0.76700
C1260       C  0.20027578  0.72454169  0.91002657     0.99200
C1261       C  0.17347604  0.69761296  0.54481816     0.94100
O1262       O  0.14192832  0.67352099  0.55064561    -0.82000
O1263       O  0.01403943  0.76760798  0.57384453    -0.81400
C1264       C  0.97024465  0.81255979  0.71216418     0.97900
O1265       O  0.99471173  0.80623497  0.71655359    -0.70600
O1266       O  0.98610757  0.75131988  0.67844221    -0.74200
Al1267     Al  0.02050221  0.79646576  0.67128360     1.49000
C1268       C  0.95860883  0.73092924  0.65962024     0.93200
O1269       O  0.93981032  0.78246495  0.58228728    -0.80400
O1270       O  0.03320383  0.86311841  0.58892197    -0.73900
Al1271     Al  0.97988957  0.77850673  0.58384249     1.90100
O1272       O  0.96636454  0.83688822  0.59106939    -0.73000
O1273       O  0.03345192  0.86748378  0.67713569    -0.72900
O1274       O  0.96636252  0.82542694  0.67705944    -0.78500
O1275       O  0.06031361  0.84055505  0.67167516    -0.76700
O1276       O  0.99983012  0.80581569  0.62921754    -1.12900
O1277       O  0.04692093  0.78491105  0.63177792    -0.72000
C1278       C  0.04074452  0.77291930  0.59291458     0.98700
C1279       C  0.94113463  0.81034598  0.57637273     0.95100
Al1280     Al  0.99980135  0.84473603  0.63299275     1.55600
O1281       O  0.95222525  0.73802443  0.62135278    -0.76700
C1282       C  0.05925888  0.86564491  0.68599976     0.99200
C1283       C  0.03157149  0.84897642  0.55205781     0.94100
O1284       O  0.00768454  0.81786234  0.54325902    -0.82000
O1285       O  0.31357798  0.85657034  0.79176817    -0.81400
C1286       C  0.36023067  0.86171981  0.61666800     0.97900
O1287       O  0.34889658  0.83702553  0.64365955    -0.70600
O1288       O  0.37711295  0.84580251  0.72047961    -0.74200
Al1289     Al  0.33142201  0.82889229  0.70237314     1.49000
C1290       C  0.39139681  0.86275540  0.75454442     0.93200
O1291       O  0.38362822  0.93352991  0.72866566    -0.80400
O1292       O  0.28555584  0.88720641  0.69509232    -0.73900
Al1293     Al  0.34793718  0.89314913  0.75715980     1.90100
O1294       O  0.35210173  0.93271275  0.67334023    -0.73000
O1295       O  0.28545844  0.84129941  0.63885587    -0.72900
O1296       O  0.35426503  0.88572120  0.62273706    -0.78500
O1297       O  0.28550324  0.80455222  0.68391720    -0.76700
O1298       O  0.33341444  0.86906507  0.70704124    -1.12900
O1299       O  0.31308021  0.81294255  0.76014268    -0.72000
C1300       C  0.30361908  0.82509805  0.79068061     0.98700
C1301       C  0.37747156  0.94897005  0.69867914     0.95100
Al1302     Al  0.32049529  0.88518527  0.66148102     1.55600
O1303       O  0.38114913  0.88088083  0.77247747    -0.76700
C1304       C  0.27180374  0.81079689  0.65245455     0.99200
C1305       C  0.29189913  0.90358101  0.73100364     0.94100
O1306       O  0.31778990  0.91006600  0.75371795    -0.82000
O1307       O  0.26889091  0.03642834  0.90155366    -0.81400
C1308       C  0.14287340  0.95103377  0.82995725     0.97900
O1309       O  0.15499462  0.93989726  0.85945046    -0.70600
O1310       O  0.21845919  0.96090402  0.84731304    -0.74200
Al1311     Al  0.19688710  0.96511195  0.89523136     1.49000
C1312       C  0.24057330  0.97967000  0.81971675     0.93200
O1313       O  0.22260417  0.04959022  0.80840419    -0.80400
O1314       O  0.18469626  0.03762742  0.92880097    -0.73900
Al1315     Al  0.24163828  0.03936973  0.85825158     1.90100
O1316       O  0.18112980  0.04878962  0.84426643    -0.73000
O1317       O  0.13604077  0.97128977  0.91748328    -0.72900
O1318       O  0.14847626  0.98135082  0.83149596    -0.78500
O1319       O  0.17274277  0.96161958  0.94853959    -0.76700
O1320       O  0.20230060  0.00468076  0.87818304    -1.12900
O1321       O  0.23959398  0.98479885  0.92985870    -0.72000
C1322       C  0.26750980  0.01351134  0.92590538     0.98700
C1323       C  0.20193881  0.05986730  0.81294733     0.95100
Al1324     Al  0.16595800  0.00934507  0.88046637     1.55600
O1325       O  0.25161141  0.01162392  0.81809967    -0.76700
C1326       C  0.14247496  0.95550553  0.94600722     0.99200
C1327       C  0.21327447  0.06570286  0.92649966     0.94100
O1328       O  0.23657441  0.07099279  0.89799559    -0.82000
O1329       O  0.45058370  0.07576733  0.58046041    -0.81400
C1330       C  0.45429445  0.17877473  0.99089237     0.97900
O1331       O  0.43406812  0.16429485  0.52468641    -0.70600
O1332       O  0.40157025  0.09620297  0.03609350    -0.74200
Al1333     Al  0.43442532  0.13430758  0.57191705     1.49000
C1334       C  0.40210868  0.07745950  0.00614330     0.93200
O1335       O  0.49646828  0.11901696  0.97542240    -0.80400
O1336       O  0.52999320  0.17202801  0.58558081    -0.73900
Al1337     Al  0.47297251  0.10128001  0.53100302     1.90100
O1338       O  0.53422462  0.16829980  0.99987126    -0.73000
O1339       O  0.49701831  0.20772994  0.57191510    -0.72900
O1340       O  0.48502297  0.18442343  0.49092978    -0.78500
O1341       O  0.45739374  0.17048687  0.61421387    -0.76700
O1342       O  0.47124081  0.13770721  0.54705049    -1.12900
O1343       O  0.43168393  0.10322512  0.61902416    -0.72000
C1344       C  0.43772648  0.07889336  0.61534705     0.98700
C1345       C  0.52678082  0.14368294  0.97480748     0.95100
Al1346     Al  0.50782307  0.17902908  0.53788795     1.55600
O1347       O  0.43023801  0.07960199  0.99557155    -0.76700
C1348       C  0.47849918  0.20119802  0.60520038     0.99200
C1349       C  0.53326956  0.14583936  0.58907427     0.94100
O1350       O  0.51551538  0.11893259  0.56513296    -0.82000
O1351       O  0.75998792  0.00749959  0.67737898    -0.81400
C1352       C  0.81822521  0.97492930  0.54322789     0.97900
O1353       O  0.81034042  0.99824064  0.53881753    -0.70600
O1354       O  0.75172526  0.98666410  0.57019507    -0.74200
Al1355     Al  0.79620575  0.02073123  0.58373486     1.49000
C1356       C  0.72770940  0.95959228  0.58626918     0.93200
O1357       O  0.77422829  0.93371898  0.66390329    -0.80400
O1358       O  0.85501189  0.02751696  0.67728344    -0.73900
Al1359     Al  0.77041717  0.97394677  0.66679277     1.90100
O1360       O  0.82924427  0.96064107  0.66764270    -0.73000
O1361       O  0.86871192  0.03520165  0.58954451    -0.72900
O1362       O  0.82681882  0.96873614  0.58043647    -0.78500
O1363       O  0.84049037  0.06106501  0.58893623    -0.76700
O1364       O  0.80198101  0.99762824  0.62642455    -1.12900
O1365       O  0.78033476  0.04424146  0.62279774    -0.72000
C1366       C  0.76493440  0.03450624  0.65968832     0.98700
C1367       C  0.80101627  0.93386059  0.67435825     0.95100
Al1368     Al  0.84122898  0.99807059  0.62859749     1.55600
O1369       O  0.73180598  0.95014833  0.62430549    -0.76700
C1370       C  0.86703831  0.06079859  0.57870716     0.99200
C1371       C  0.83761484  0.02113140  0.71269493     0.94100
O1372       O  0.80561410  0.99719813  0.71454049    -0.82000
O1373       O  0.57864965  0.89105115  0.50791364    -0.81400
C1374       C  0.48294118  0.84783867  0.87045865     0.97900
O1375       O  0.51422073  0.85604535  0.86489463    -0.70600
O1376       O  0.55831543  0.91319356  0.90154622    -0.74200
Al1377     Al  0.55170713  0.86939037  0.90753704     1.49000
C1378       C  0.55847039  0.93472583  0.92743174     0.93200
O1379       O  0.49248221  0.88504135  0.50286918    -0.80400
O1380       O  0.49690959  0.80161231  0.49651462    -0.73900
Al1381     Al  0.53482142  0.88529476  0.50079676     1.90100
O1382       O  0.45907886  0.83093016  0.49343534    -0.73000
O1383       O  0.49391431  0.79545870  0.90948350    -0.72900
O1384       O  0.46823925  0.83728303  0.90738314    -0.78500
O1385       O  0.54939120  0.82585265  0.90506388    -0.76700
O1386       O  0.52355941  0.85861333  0.95367309    -1.12900
O1387       O  0.59379786  0.88579361  0.94232448    -0.72000
C1388       C  0.60038935  0.89230716  0.98309906     0.98700
C1389       C  0.46302575  0.85894987  0.50594993     0.95100
Al1390     Al  0.48304848  0.81979903  0.95194315     1.55600
O1391       O  0.55163262  0.92786020  0.96807525    -0.76700
C1392       C  0.52174134  0.79851545  0.89685399     0.99200
C1393       C  0.51035797  0.81502392  0.53309684     0.94100
O1394       O  0.51971694  0.84627419  0.54116815    -0.82000
O1395       O  0.68987284  0.09939887  0.74254212    -0.81400
C1396       C  0.63416429  0.14563291  0.86727604     0.97900
O1397       O  0.65698503  0.13830463  0.87832409    -0.70600
O1398       O  0.64367693  0.08123697  0.84703473    -0.74200
Al1399     Al  0.68221857  0.12263063  0.84043749     1.49000
C1400       C  0.62489037  0.05725985  0.82199121     0.93200
O1401       O  0.61309937  0.10836351  0.74003808    -0.80400
O1402       O  0.70694177  0.19000710  0.75152542    -0.73900
Al1403     Al  0.65345019  0.10600733  0.74590961     1.90100
O1404       O  0.63986647  0.16383602  0.74236455    -0.73000
O1405       O  0.70262134  0.19617005  0.83842033    -0.72900
O1406       O  0.63403066  0.15717594  0.82939289    -0.78500
O1407       O  0.72448203  0.16379930  0.84169591    -0.76700
O1408       O  0.66859302  0.13334190  0.79222359    -1.12900
O1409       O  0.70735256  0.10328595  0.81048680    -0.72000
C1410       C  0.70840032  0.09639222  0.77005510     0.98700
C1411       C  0.61555302  0.13594139  0.72802974     0.95100
Al1412     Al  0.67065080  0.17354679  0.79045868     1.55600
O1413       O  0.62529931  0.06249167  0.78046562    -0.76700
C1414       C  0.72515365  0.19049111  0.85303211     0.99200
C1415       C  0.70629863  0.17605799  0.71514802     0.94100
O1416       O  0.68202318  0.14538934  0.70568192    -0.82000
O1417       O  0.43129950  0.34943199  0.84683066    -0.81400
C1418       C  0.49262535  0.30791885  0.72601884     0.97900
O1419       O  0.48798560  0.33333178  0.71810837    -0.70600
O1420       O  0.42950212  0.32906038  0.74024712    -0.74200
Al1421     Al  0.47420251  0.35972551  0.75880645     1.49000
C1422       C  0.40298818  0.30330422  0.75487123     0.93200
O1423       O  0.43607896  0.27125004  0.83926737    -0.80400
O1424       O  0.52239962  0.36016719  0.85980197    -0.73900
Al1425     Al  0.43798011  0.31350155  0.83960029     1.90100
O1426       O  0.48957547  0.29187061  0.85326398    -0.73000
O1427       O  0.54317931  0.36680001  0.77545777    -0.72900
O1428       O  0.49661160  0.30078586  0.76519937    -0.78500
O1429       O  0.51995963  0.39720241  0.76757646    -0.76700
O1430       O  0.47344022  0.33460962  0.80336829    -1.12900
O1431       O  0.46012589  0.38709810  0.79579839    -0.72000
C1432       C  0.44285862  0.37877053  0.83185080     0.98700
C1433       C  0.45882711  0.26822473  0.85755533     0.95100
Al1434     Al  0.50971713  0.33027904  0.81260342     1.55600
O1435       O  0.40289669  0.29321213  0.79390345    -0.76700
C1436       C  0.54558510  0.39415643  0.76245705     0.99200
C1437       C  0.50256250  0.35635226  0.89158265     0.94100
O1438       O  0.47013185  0.33380279  0.89074082    -0.82000
O1439       O  0.25615913  0.23413774  0.67715418    -0.81400
C1440       C  0.15893233  0.19500347  0.54220950     0.97900
O1441       O  0.19067523  0.20630486  0.53418234    -0.70600
O1442       O  0.23038553  0.26231351  0.57484850    -0.74200
Al1443     Al  0.22970185  0.22177268  0.57538612     1.49000
C1444       C  0.23420239  0.28306781  0.60431444     0.93200
O1445       O  0.16920648  0.22578694  0.67716520    -0.80400
O1446       O  0.18236859  0.14697515  0.65914795    -0.73900
Al1447     Al  0.21261389  0.22853672  0.67306574     1.90100
O1448       O  0.13905673  0.17138416  0.66433402    -0.73000
O1449       O  0.17889985  0.14619598  0.57385471    -0.72900
O1450       O  0.14570934  0.18052201  0.57851644    -0.78500
O1451       O  0.23332051  0.18271740  0.56818012    -0.76700
O1452       O  0.20269035  0.20555660  0.62256627    -1.12900
O1453       O  0.27287543  0.24104628  0.60812546    -0.72000
C1454       C  0.27922504  0.24173828  0.64903416     0.98700
C1455       C  0.14092194  0.19795720  0.67985283     0.95100
Al1456     Al  0.16476016  0.16470699  0.61938679     1.55600
O1457       O  0.23055975  0.27416993  0.64484167    -0.76700
C1458       C  0.20777109  0.15437911  0.55835025     0.99200
C1459       C  0.19103411  0.15678437  0.69820963     0.94100
O1460       O  0.19772003  0.18676263  0.70971502    -0.82000
O1461       O  0.36505466  0.44133510  0.90937661    -0.81400
C1462       C  0.31297424  0.49399656  0.52905987     0.97900
O1463       O  0.33910360  0.49148169  0.53893149    -0.70600
O1464       O  0.33161315  0.43327113  0.51880726    -0.74200
Al1465     Al  0.36515575  0.47666359  0.50137756     1.49000
C1466       C  0.30878826  0.40643350  0.00105373     0.93200
O1467       O  0.28183348  0.43901157  0.91138287    -0.80400
O1468       O  0.36929144  0.52615890  0.89633385    -0.73900
Al1469     Al  0.32542323  0.44303402  0.91459405     1.90100
O1470       O  0.30162501  0.49349231  0.90433346    -0.73000
O1471       O  0.37648811  0.54670735  0.47973897    -0.72900
O1472       O  0.30866255  0.50129317  0.49030880    -0.78500
O1473       O  0.40393764  0.52078763  0.49243696    -0.76700
O1474       O  0.34296487  0.47716833  0.95345356    -1.12900
O1475       O  0.39228749  0.46075976  0.97187434    -0.72000
C1476       C  0.39011547  0.44864385  0.93347044     0.98700
C1477       C  0.27895419  0.46312294  0.89653799     0.95100
Al1478     Al  0.33896853  0.51350488  0.94379034     1.55600
O1479       O  0.30482430  0.40630977  0.95943788    -0.76700
C1480       C  0.40345644  0.54798165  0.49192826     0.99200
C1481       C  0.36362913  0.50770140  0.86233006     0.94100
O1482       O  0.34402467  0.47504095  0.86400578    -0.82000
O1483       O  0.53161549  0.66811987  0.61122647    -0.81400
C1484       C  0.51105382  0.69114622  0.77934005     0.97900
O1485       O  0.50390836  0.69577058  0.74067852    -0.70600
O1486       O  0.50760608  0.70493740  0.65531450    -0.74200
Al1487     Al  0.49212406  0.66687585  0.69278509     1.49000
C1488       C  0.53654456  0.73059900  0.64868073     0.93200
O1489       O  0.60075126  0.71102426  0.70356690    -0.80400
O1490       O  0.55249630  0.61992373  0.71111808    -0.73900
Al1491     Al  0.56395542  0.68873137  0.66054881     1.90100
O1492       O  0.57801553  0.67862219  0.76189936    -0.73000
O1493       O  0.48968213  0.60311421  0.73959771    -0.72900
O1494       O  0.51792988  0.66744408  0.78712737    -0.78500
O1495       O  0.46207319  0.62907586  0.72783865    -0.76700
O1496       O  0.53057829  0.66635098  0.69974439    -1.12900
O1497       O  0.48034573  0.63843848  0.64358117    -0.72000
C1498       C  0.49937379  0.64614619  0.60970228     0.98700
C1499       C  0.60277153  0.70372664  0.74334355     0.95100
Al1500     Al  0.53413868  0.64405014  0.74592530     1.55600
O1501       O  0.56274323  0.73032516  0.66076763    -0.76700
C1502       C  0.46217221  0.60325730  0.74143584     0.99200
C1503       C  0.56777104  0.62759675  0.67380934     0.94100
O1504       O  0.57165120  0.65306815  0.65294608    -0.82000
O1505       O  0.66824506  0.51849635  0.63554637    -0.81400
C1506       C  0.69075115  0.50639207  0.96210706     0.97900
O1507       O  0.69509180  0.49641299  0.99907948    -0.70600
O1508       O  0.70503546  0.49876043  0.58451876    -0.74200
Al1509     Al  0.66565558  0.48392700  0.54820863     1.49000
C1510       C  0.73044367  0.52814840  0.59162231     0.93200
O1511       O  0.70814211  0.59515062  0.55037962    -0.80400
O1512       O  0.62667628  0.55300242  0.53598027    -0.73900
Al1513     Al  0.68713514  0.55411919  0.58890040     1.90100
O1514       O  0.68545938  0.57401225  0.48599285    -0.73000
O1515       O  0.60531679  0.49032708  0.00912656    -0.72900
O1516       O  0.66691955  0.51329782  0.95689987    -0.78500
O1517       O  0.62570953  0.45685233  0.51225818    -0.76700
O1518       O  0.66681067  0.52379429  0.54588637    -1.12900
O1519       O  0.63704147  0.47036586  0.59805775    -0.72000
C1520       C  0.64489697  0.48668745  0.63413326     0.98700
C1521       C  0.70566391  0.59908054  0.50924434     0.95100
Al1522     Al  0.64767285  0.53185291  0.00069446     1.55600
O1523       O  0.72860796  0.55420334  0.58330229    -0.76700
C1524       C  0.60136265  0.46117264  0.00404615     0.99200
C1525       C  0.62878253  0.56081037  0.57662658     0.94100
O1526       O  0.64948401  0.55848391  0.60127392    -0.82000
O1527       O  0.81442988  0.81068741  0.96544962    -0.81400
C1528       C  0.81407117  0.84186651  0.79329885     0.97900
O1529       O  0.82631428  0.85867925  0.82870217    -0.70600
O1530       O  0.83367951  0.86994967  0.91575914    -0.74200
Al1531     Al  0.84313545  0.84408438  0.87512926     1.49000
C1532       C  0.80648585  0.86746672  0.92950108     0.93200
O1533       O  0.73310995  0.77805115  0.88883346    -0.80400
O1534       O  0.77823318  0.73464249  0.87309955    -0.73900
Al1535     Al  0.77551602  0.79593479  0.92413621     1.90100
O1536       O  0.74983129  0.76568104  0.82736287    -0.73000
O1537       O  0.83728461  0.77757625  0.83664094    -0.72900
O1538       O  0.80678927  0.81068396  0.78964390    -0.78500
O1539       O  0.86783978  0.83260242  0.83372016    -0.76700
O1540       O  0.80338286  0.80436882  0.87817837    -1.12900
O1541       O  0.85982937  0.82961451  0.92096350    -0.72000
C1542       C  0.84585117  0.81934645  0.95851228     0.98700
C1543       C  0.72666545  0.76551099  0.85003014     0.95100
Al1544     Al  0.79392253  0.77467639  0.83519160     1.55600
O1545       O  0.77859530  0.83990487  0.92340345    -0.76700
C1546       C  0.86497090  0.80407949  0.82666499     0.99200
C1547       C  0.76745039  0.72878103  0.91255441     0.94100
O1548       O  0.76632785  0.75141533  0.93470046    -0.82000
C1549       C  0.75281053  0.69429310  0.93369058    -0.05000
C1550       C  0.77389756  0.68429772  0.95521457    -0.02100
C1551       C  0.75918233  0.65460810  0.98267292     0.02900
C1552       C  0.72311968  0.63361067  0.98691603    -0.05000
C1553       C  0.70218898  0.64365124  0.96474504    -0.02100
C1554       C  0.71691907  0.67409900  0.93959433     0.02900
C1555       C  0.81080625  0.70520154  0.95005105     0.37500
C1556       C  0.66505024  0.62332542  0.96902448     0.37500
C1557       C  0.69479525  0.68521187  0.92105967     0.35900
C1558       C  0.78107962  0.64569678  0.50542984     0.35900
N1559       N  0.67663257  0.69373343  0.90723020    -0.38900
N1560       N  0.79929371  0.63969158  0.52475554    -0.38900
N1561       N  0.63545206  0.60758596  0.97217413    -0.38300
N1562       N  0.84026528  0.72200699  0.94581822    -0.38300
C1563       C  0.63522038  0.72174833  0.76902819    -0.05000
C1564       C  0.65476446  0.70585578  0.77267666    -0.02100
C1565       C  0.68293654  0.71896842  0.80149801     0.02900
C1566       C  0.69186767  0.74799044  0.82847049    -0.05000
C1567       C  0.66936908  0.76085077  0.82930181    -0.02100
C1568       C  0.64207517  0.74879376  0.79828995     0.02900
C1569       C  0.64483103  0.67448052  0.74866632     0.37500
C1570       C  0.67271124  0.78462470  0.86339783     0.37500
C1571       C  0.62068027  0.76382595  0.79678058     0.35900
C1572       C  0.70157633  0.70091295  0.80500593     0.35900
N1573       N  0.60371543  0.77595779  0.79514128    -0.38900
N1574       N  0.71618688  0.68634131  0.80767096    -0.38900
N1575       N  0.67485976  0.80321650  0.89098047    -0.38300
N1576       N  0.63730330  0.64904620  0.73095596    -0.38300
C1577       C  0.61017704  0.57663138  0.59689051    -0.05000
C1578       C  0.57995012  0.55678197  0.62209645    -0.02100
C1579       C  0.56727096  0.57282179  0.65048544     0.02900
C1580       C  0.58357072  0.60897036  0.65210835    -0.05000
C1581       C  0.61470535  0.62862338  0.62790143    -0.02100
C1582       C  0.62803972  0.61259762  0.60153033     0.02900
C1583       C  0.56269739  0.51972706  0.62002962     0.37500
C1584       C  0.63465139  0.66580244  0.63181317     0.37500
C1585       C  0.66181231  0.63351107  0.58187043     0.35900
C1586       C  0.53889189  0.55210871  0.67978151     0.35900
N1587       N  0.68908739  0.65106187  0.56768197    -0.38900
N1588       N  0.51706078  0.53527172  0.70425613    -0.38900
N1589       N  0.65068634  0.69536242  0.63486418    -0.38300
N1590       N  0.54906050  0.49015382  0.61823061    -0.38300
C1591       C  0.37951569  0.52636961  0.82052727    -0.05000
C1592       C  0.39579297  0.51583784  0.79013474    -0.02100
C1593       C  0.42143403  0.54037460  0.76147450     0.02900
C1594       C  0.43063998  0.57522921  0.76352786    -0.05000
C1595       C  0.40942312  0.58360591  0.78840173    -0.02100
C1596       C  0.38295438  0.55871223  0.81480225     0.02900
C1597       C  0.38615766  0.48015758  0.78821925     0.37500
C1598       C  0.41559448  0.61819141  0.78988329     0.37500
C1599       C  0.35906014  0.56639300  0.83640619     0.35900
C1600       C  0.43680225  0.52939962  0.72854049     0.35900
N1601       N  0.33982433  0.57236926  0.85320181    -0.38900
N1602       N  0.44796199  0.51999944  0.70142803    -0.38900
N1603       N  0.41992184  0.64552425  0.79186267    -0.38300
N1604       N  0.37822160  0.45158829  0.78645639    -0.38300
C1605       C  0.43334582  0.58032825  0.50974169    -0.05000
C1606       C  0.46569262  0.58306602  0.51583303    -0.02100
C1607       C  0.48994530  0.60770348  0.54517067     0.02900
C1608       C  0.48216050  0.62985755  0.56777124    -0.05000
C1609       C  0.45337630  0.63173014  0.55491848    -0.02100
C1610       C  0.42891052  0.60706882  0.52603298     0.02900
C1611       C  0.47402058  0.56036542  0.49259953     0.37500
C1612       C  0.44850735  0.65861393  0.57264773     0.37500
C1613       C  0.39867172  0.60868894  0.51532824     0.35900
C1614       C  0.52206206  0.60918499  0.55355746     0.35900
N1615       N  0.37464935  0.61017078  0.50682418    -0.38900
N1616       N  0.54783740  0.61049550  0.55961208    -0.38900
N1617       N  0.44471764  0.68014313  0.58655173    -0.38300
N1618       N  0.48072312  0.54233730  0.47398290    -0.38300
C1619       C  0.24661447  0.31862389  0.58769320    -0.05000
C1620       C  0.23339516  0.32246214  0.54714136    -0.02100
C1621       C  0.25343618  0.35056576  0.51865843     0.02900
C1622       C  0.28718553  0.37607611  0.53048960    -0.05000
C1623       C  0.29905252  0.37375873  0.57346904    -0.02100
C1624       C  0.27837368  0.34584298  0.60207809     0.02900
C1625       C  0.19889042  0.29688295  0.53408147     0.37500
C1626       C  0.33347238  0.39868213  0.58811483     0.37500
C1627       C  0.29058651  0.34423002  0.64566825     0.35900
C1628       C  0.23876916  0.35269284  0.97753847     0.35900
N1629       N  0.30021580  0.34300034  0.68053000    -0.38900
N1630       N  0.22695280  0.35427227  0.94449780    -0.38900
N1631       N  0.36089527  0.41830926  0.60009403    -0.38300
N1632       N  0.17133767  0.27717953  0.52285504    -0.38300
C1633       C  0.51887800  0.38040834  0.92893098    -0.05000
C1634       C  0.52832708  0.41496189  0.92295920    -0.02100
C1635       C  0.55200747  0.44075725  0.95126753     0.02900
C1636       C  0.56907898  0.43285534  0.98392321    -0.05000
C1637       C  0.55792877  0.39791558  0.99205330    -0.02100
C1638       C  0.53316731  0.37185834  0.96431272     0.02900
C1639       C  0.51809438  0.42549723  0.88382568     0.37500
C1640       C  0.57158517  0.38852426  0.52845840     0.37500
C1641       C  0.52536215  0.33684058  0.96887656     0.35900
C1642       C  0.56064837  0.47588847  0.94353795     0.35900
N1643       N  0.51952374  0.30897393  0.97166689    -0.38900
N1644       N  0.56719035  0.50369090  0.93703144    -0.38900
N1645       N  0.58266409  0.38111595  0.55786889    -0.38300
N1646       N  0.51231786  0.43632834  0.85279468    -0.38300
C1647       C  0.57674262  0.42077493  0.73712449    -0.05000
C1648       C  0.59656276  0.41088760  0.71163148    -0.02100
C1649       C  0.62127876  0.43389574  0.68113111     0.02900
C1650       C  0.62638060  0.46695260  0.67464579    -0.05000
C1651       C  0.60982639  0.47837128  0.70328935    -0.02100
C1652       C  0.58509355  0.45547424  0.73420840     0.02900
C1653       C  0.59054577  0.37638627  0.71412209     0.37500
C1654       C  0.61732940  0.51338500  0.70011332     0.37500
C1655       C  0.56835030  0.46817086  0.76248271     0.35900
C1656       C  0.64152030  0.42334883  0.65587131     0.35900
N1657       N  0.55578116  0.47961367  0.78427434    -0.38900
N1658       N  0.65773493  0.41504757  0.63580331    -0.38900
N1659       N  0.62343257  0.54138712  0.69823144    -0.38300
N1660       N  0.58616862  0.34900496  0.71552008    -0.38300
C1661       C  0.31434589  0.25405037  0.66668340    -0.05000
C1662       C  0.31925649  0.23455191  0.69899403    -0.02100
C1663       C  0.34806959  0.25011572  0.72752508     0.02900
C1664       C  0.37229863  0.28574405  0.72447021    -0.05000
C1665       C  0.36823039  0.30456520  0.68964515    -0.02100
C1666       C  0.34028171  0.28835387  0.66010024     0.02900
C1667       C  0.29515910  0.19793751  0.70141872     0.37500
C1668       C  0.39139276  0.34130063  0.68514500     0.37500
C1669       C  0.33788141  0.30721999  0.62310954     0.35900
C1670       C  0.35275166  0.22916866  0.75947305     0.35900
N1671       N  0.33634152  0.32201571  0.59303110    -0.38900
N1672       N  0.35645402  0.21236249  0.78488519    -0.38900
N1673       N  0.40964287  0.37060513  0.68146957    -0.38300
N1674       N  0.27636698  0.16860785  0.70262770    -0.38300
C1675       C  0.43622798  0.40219598  0.86094901    -0.05000
C1676       C  0.42653816  0.39320886  0.90653348    -0.02100
C1677       C  0.41405013  0.41041109  0.93214468     0.02900
C1678       C  0.41478827  0.43936228  0.91544712    -0.05000
C1679       C  0.43066524  0.45250407  0.87411443    -0.02100
C1680       C  0.43946771  0.43318289  0.84582381     0.02900
C1681       C  0.42935762  0.36664638  0.92908746     0.37500
C1682       C  0.43969850  0.48697763  0.86238850     0.37500
C1683       C  0.45079670  0.44486819  0.80118991     0.35900
C1684       C  0.39850537  0.39708122  0.97508612     0.35900
N1685       N  0.45956250  0.45412200  0.76539276    -0.38900
N1686       N  0.38589326  0.38633930  0.00909367    -0.38900
N1687       N  0.44805677  0.51507985  0.85433981    -0.38300
N1688       N  0.43099450  0.34603784  0.94945229    -0.38300
C1689       C  0.60566876  0.02343027  0.84568819    -0.05000
C1690       C  0.62368953  0.01772195  0.87999099    -0.02100
C1691       C  0.60594830  0.99326813  0.91316827     0.02900
C1692       C  0.57100065  0.96938521  0.90856119    -0.05000
C1693       C  0.55246774  0.97445448  0.87492484    -0.02100
C1694       C  0.56963167  0.00177534  0.84394431     0.02900
C1695       C  0.66097468  0.03638377  0.88103448     0.37500
C1696       C  0.51543336  0.95300889  0.87471139     0.37500
C1697       C  0.55037728  0.00750268  0.81065886     0.35900
C1698       C  0.62330439  0.99345936  0.95333288     0.35900
N1699       N  0.53498091  0.01192162  0.78384337    -0.38900
N1700       N  0.63670846  0.99432061  0.98611165    -0.38900
N1701       N  0.48579899  0.93615998  0.87524144    -0.38300
N1702       N  0.69063695  0.05071816  0.88223045    -0.38300
C1703       C  0.51718676  0.79395517  0.56497500    -0.05000
C1704       C  0.51920637  0.76559800  0.54886024    -0.02100
C1705       C  0.53313671  0.75046983  0.57509332     0.02900
C1706       C  0.53820333  0.75769132  0.62036181    -0.05000
C1707       C  0.53382050  0.78384619  0.63807186    -0.02100
C1708       C  0.52487138  0.80305573  0.61015445     0.02900
C1709       C  0.50514440  0.74972885  0.50647586     0.37500
C1710       C  0.53819988  0.79059969  0.68504958     0.37500
C1711       C  0.52143296  0.83046015  0.62888132     0.35900
C1712       C  0.54239506  0.72739790  0.55477221     0.35900
N1713       N  0.51863350  0.85226707  0.64399540    -0.38900
N1714       N  0.55032432  0.71005071  0.53684405    -0.38900
N1715       N  0.54176648  0.79594040  0.72255811    -0.38300
N1716       N  0.49290828  0.73623284  0.97323818    -0.38300
C1717       C  0.52046244  0.77107031  0.86814679    -0.05000
C1718       C  0.53735996  0.75313038  0.87867237    -0.02100
C1719       C  0.53293357  0.72538840  0.85174469     0.02900
C1720       C  0.51139693  0.71526288  0.81401173    -0.05000
C1721       C  0.49353991  0.73278478  0.80518374    -0.02100
C1722       C  0.49983621  0.76143867  0.83015022     0.02900
C1723       C  0.55988669  0.76370236  0.91656077     0.37500
C1724       C  0.46848524  0.72215127  0.76977235     0.37500
C1725       C  0.48775519  0.78308702  0.81298942     0.35900
C1726       C  0.55117055  0.70799406  0.86257478     0.35900
N1727       N  0.47846738  0.79957453  0.79594889    -0.38900
N1728       N  0.56574735  0.69411897  0.87138382    -0.38900
N1729       N  0.44873100  0.71432416  0.74155195    -0.38300
N1730       N  0.57791386  0.77221751  0.94679669    -0.38300
C1731       C  0.80908022  0.89659125  0.95567355    -0.05000
C1732       C  0.83530296  0.91243996  0.48696738    -0.02100
C1733       C  0.84244174  0.94292780  0.50759155     0.02900
C1734       C  0.81857467  0.95388327  0.50558961    -0.05000
C1735       C  0.79170684  0.93813653  0.97459840    -0.02100
C1736       C  0.78735397  0.90996791  0.94898407     0.02900
C1737       C  0.85112564  0.89460339  0.50527430     0.37500
C1738       C  0.76891280  0.95109038  0.96826315     0.37500
C1739       C  0.75987153  0.89442544  0.91713581     0.35900
C1740       C  0.87435976  0.96275849  0.53184052     0.35900
N1741       N  0.73742871  0.88266023  0.89228703    -0.38900
N1742       N  0.89987686  0.97882801  0.55076921    -0.38900
N1743       N  0.75089954  0.96153084  0.96176320    -0.38300
N1744       N  0.86292164  0.88093664  0.52378314    -0.38300
C1745       C  0.80009934  0.90429260  0.69788069    -0.05000
C1746       C  0.77490790  0.88581056  0.73055103    -0.02100
C1747       C  0.77898072  0.86420752  0.76016402     0.02900
C1748       C  0.80709011  0.85927605  0.75664238    -0.05000
C1749       C  0.83063554  0.87517469  0.72185539    -0.02100
C1750       C  0.82724304  0.89758120  0.69259645     0.02900
C1751       C  0.74576623  0.89040686  0.73594643     0.37500
C1752       C  0.85945139  0.86997060  0.71785931     0.37500
C1753       C  0.85199998  0.91384075  0.65726431     0.35900
C1754       C  0.75543161  0.84886233  0.79657184     0.35900
N1755       N  0.87190400  0.92666425  0.62915834    -0.38900
N1756       N  0.73710252  0.83714140  0.82626660    -0.38900
N1757       N  0.88241713  0.86574644  0.71498207    -0.38300
N1758       N  0.72235555  0.89377390  0.74033923    -0.38300
C1759       C  0.72714973  0.08014663  0.75189387    -0.05000
C1760       C  0.76041889  0.10033274  0.73358136    -0.02100
C1761       C  0.77226705  0.08688820  0.70009451     0.02900
C1762       C  0.75091376  0.05297742  0.68477992    -0.05000
C1763       C  0.71760379  0.03298958  0.70311254    -0.02100
C1764       C  0.70648276  0.04593593  0.73737444     0.02900
C1765       C  0.78339529  0.13404908  0.75130146     0.37500
C1766       C  0.69417988  0.99889030  0.68591131     0.37500
C1767       C  0.67298016  0.02391926  0.75719934     0.35900
C1768       C  0.80700085  0.10717835  0.68329686     0.35900
N1769       N  0.64634672  0.00580308  0.77279060    -0.38900
N1770       N  0.83475941  0.12330554  0.66991640    -0.38900
N1771       N  0.67554771  0.97182276  0.67201545    -0.38300
N1772       N  0.80283722  0.16057659  0.76586007    -0.38300
C1773       C  0.69535574  0.93997366  0.55793532    -0.05000
C1774       C  0.66940399  0.90557167  0.56686615    -0.02100
C1775       C  0.63978615  0.88829703  0.53947421     0.02900
C1776       C  0.63583523  0.90424281  0.50170525    -0.05000
C1777       C  0.66337603  0.93650549  0.48959633    -0.02100
C1778       C  0.69115364  0.95542726  0.51890443     0.02900
C1779       C  0.67258984  0.88772958  0.60442751     0.37500
C1780       C  0.66295796  0.95027540  0.94708764     0.37500
C1781       C  0.71376032  0.99160170  0.50917549     0.35900
C1782       C  0.61461020  0.85278395  0.54794686     0.35900
N1783       N  0.73146948  0.02041915  0.50106138    -0.38900
N1784       N  0.59551526  0.82401769  0.55430252    -0.38900
N1785       N  0.66328859  0.96068297  0.91215414    -0.38300
N1786       N  0.67498234  0.87337757  0.63442042    -0.38300
C1787       C  0.55750394  0.14590365  0.62259269    -0.05000
C1788       C  0.56979529  0.12305815  0.61851086    -0.02100
C1789       C  0.58641337  0.11777439  0.65421428     0.02900
C1790       C  0.59261108  0.13664887  0.69374204    -0.05000
C1791       C  0.58258649  0.16125892  0.69656859    -0.02100
C1792       C  0.56715702  0.16733998  0.66027393     0.02900
C1793       C  0.56889948  0.10784605  0.57602882     0.37500
C1794       C  0.58764636  0.18012983  0.73726404     0.37500
C1795       C  0.56549318  0.19831026  0.66010295     0.35900
C1796       C  0.59842894  0.09394323  0.64897384     0.35900
N1797       N  0.56584804  0.22391970  0.65929390    -0.38900
N1798       N  0.60779514  0.07482509  0.64416217    -0.38900
N1799       N  0.59141303  0.19490272  0.76985776    -0.38300
N1800       N  0.56843255  0.09589790  0.54213053    -0.38300
C1801       C  0.55431375  0.14300834  0.94786874    -0.05000
C1802       C  0.58915446  0.16099557  0.96246668    -0.02100
C1803       C  0.61508515  0.16006735  0.93765770     0.02900
C1804       C  0.60683341  0.14142134  0.89809742    -0.05000
C1805       C  0.57227208  0.12258389  0.88418342    -0.02100
C1806       C  0.54617421  0.12306240  0.90895119     0.02900
C1807       C  0.59893187  0.18011194  0.50379797     0.37500
C1808       C  0.56351170  0.10278931  0.84368292     0.37500
C1809       C  0.51113980  0.10333858  0.89321590     0.35900
C1810       C  0.65062503  0.17962004  0.95179825     0.35900
N1811       N  0.48339505  0.08727482  0.88002846    -0.38900
N1812       N  0.67898238  0.19520315  0.96291478    -0.38900
N1813       N  0.55649406  0.08719176  0.81129003    -0.38300
N1814       N  0.60715472  0.19574470  0.53621870    -0.38300
C1815       C  0.44939543  0.23849454  0.88669996    -0.05000
C1816       C  0.46270792  0.21723662  0.87841262    -0.02100
C1817       C  0.46062855  0.19427864  0.91090647     0.02900
C1818       C  0.44474912  0.19210417  0.95204503    -0.05000
C1819       C  0.42538028  0.20816877  0.95660910    -0.02100
C1820       C  0.42866697  0.23232956  0.92464033     0.02900
C1821       C  0.47780430  0.21811600  0.83607594     0.37500
C1822       C  0.40349327  0.20134196  0.49508056     0.37500
C1823       C  0.41230885  0.25205896  0.93243666     0.35900
C1824       C  0.47572036  0.17350454  0.90193726     0.35900
N1825       N  0.39898407  0.26747164  0.93937455    -0.38900
N1826       N  0.48824500  0.15751124  0.89406237    -0.38900
N1827       N  0.38574847  0.19576758  0.52530109    -0.38300
N1828       N  0.48915728  0.21704309  0.80242113    -0.38300
C1829       C  0.49338241  0.28469811  0.69082092    -0.05000
C1830       C  0.50460766  0.26170329  0.70257795    -0.02100
C1831       C  0.49471592  0.23201626  0.67757900     0.02900
C1832       C  0.48283694  0.22971568  0.63433240    -0.05000
C1833       C  0.47810227  0.25638345  0.61849379    -0.02100
C1834       C  0.48078859  0.28225736  0.64754550     0.02900
C1835       C  0.52982765  0.27039384  0.73710013     0.37500
C1836       C  0.47066166  0.25755086  0.57247644     0.37500
C1837       C  0.47132516  0.30646117  0.63232585     0.35900
C1838       C  0.49680863  0.20392942  0.69670071     0.35900
N1839       N  0.46374316  0.32575697  0.62005791    -0.38900
N1840       N  0.49772113  0.18119660  0.71230976    -0.38900
N1841       N  0.46569004  0.25977288  0.53562948    -0.38300
N1842       N  0.55052041  0.27768914  0.76395304    -0.38300
C1843       C  0.30115378  0.02158987  0.94615268    -0.05000
C1844       C  0.33123036  0.03725389  0.91930173    -0.02100
C1845       C  0.36442176  0.05372645  0.93828390     0.02900
C1846       C  0.36833634  0.05342734  0.98429652    -0.05000
C1847       C  0.33836711  0.03403510  0.01054701    -0.02100
C1848       C  0.30506180  0.01857192  0.99168787     0.02900
C1849       C  0.32826529  0.03701117  0.87162045     0.37500
C1850       C  0.34032353  0.03786709  0.56198233     0.37500
C1851       C  0.27452064  0.01182132  0.52297830     0.35900
C1852       C  0.39429252  0.07326035  0.91046165     0.35900
N1853       N  0.25098856  0.00361010  0.54557860    -0.38900
N1854       N  0.41776495  0.08894208  0.88768021    -0.38900
N1855       N  0.34234849  0.03763776  0.59998057    -0.38300
N1856       N  0.32640791  0.03699456  0.83357342    -0.38300
C1857       C  0.21639515  0.09320810  0.95510000    -0.05000
C1858       C  0.18850812  0.09866264  0.95604300    -0.02100
C1859       C  0.18475107  0.11637869  0.99110269     0.02900
C1860       C  0.21060153  0.13234798  0.52473443    -0.05000
C1861       C  0.24109604  0.13123414  0.51962835    -0.02100
C1862       C  0.24322385  0.10984480  0.98571487     0.02900
C1863       C  0.16347885  0.08625505  0.92052286     0.37500
C1864       C  0.27010990  0.15076467  0.54866988     0.37500
C1865       C  0.27244269  0.10516020  0.98351041     0.35900
C1866       C  0.15163641  0.11504201  0.49789538     0.35900
N1867       N  0.29575059  0.10141400  0.98156263    -0.38900
N1868       N  0.12613875  0.11489171  0.50052441    -0.38900
N1869       N  0.29338597  0.16658720  0.57157260    -0.38300
N1870       N  0.14341468  0.07690827  0.89249511    -0.38300
C1871       C  0.20150671  0.08507855  0.78250647    -0.05000
C1872       C  0.18175088  0.07353908  0.74404223    -0.02100
C1873       C  0.17690493  0.09637506  0.71799038     0.02900
C1874       C  0.19305483  0.13195855  0.72932830    -0.05000
C1875       C  0.21289117  0.14324725  0.76846803    -0.02100
C1876       C  0.21695540  0.11987189  0.79482027     0.02900
C1877       C  0.16616325  0.03778914  0.73131013     0.37500
C1878       C  0.23005468  0.17898291  0.78147819     0.37500
C1879       C  0.23769311  0.13187782  0.83442140     0.35900
C1880       C  0.15436114  0.08218056  0.68008089     0.35900
N1881       N  0.25450935  0.14188382  0.86573707    -0.38900
N1882       N  0.13650796  0.07058173  0.64985702    -0.38900
N1883       N  0.24390193  0.20747899  0.79200954    -0.38300
N1884       N  0.15400791  0.00942915  0.72079308    -0.38300
C1885       C  0.43323821  0.86034321  0.52619553    -0.05000
C1886       C  0.40172007  0.82960276  0.53604041    -0.02100
C1887       C  0.37647525  0.83051485  0.56227027     0.02900
C1888       C  0.38176592  0.86194220  0.57879002    -0.05000
C1889       C  0.40958763  0.89268113  0.56173929    -0.02100
C1890       C  0.43568304  0.89203456  0.53666947     0.02900
C1891       C  0.39454024  0.79654438  0.51967775     0.37500
C1892       C  0.41079860  0.92484639  0.56821305     0.37500
C1893       C  0.46463669  0.92421432  0.52135979     0.35900
C1894       C  0.34430367  0.79886033  0.57116270     0.35900
N1895       N  0.48563514  0.94920535  0.00666425    -0.38900
N1896       N  0.31862934  0.77372514  0.57814616    -0.38900
N1897       N  0.41125094  0.95039581  0.57194338    -0.38300
N1898       N  0.38847897  0.77009972  0.50657568    -0.38300
C1899       C  0.46187523  0.84917258  0.83376994    -0.05000
C1900       C  0.42701791  0.82274388  0.82998373    -0.02100
C1901       C  0.40518176  0.82612897  0.80037724     0.02900
C1902       C  0.41692725  0.85721373  0.77740769    -0.05000
C1903       C  0.45207413  0.88261923  0.77889778    -0.02100
C1904       C  0.47492611  0.87747980  0.80476935     0.02900
C1905       C  0.41346632  0.79155733  0.85599703     0.37500
C1906       C  0.46474127  0.91425583  0.75466101     0.37500
C1907       C  0.51157266  0.90126040  0.80148476     0.35900
C1908       C  0.37040557  0.79754757  0.79434927     0.35900
N1909       N  0.54087009  0.91990472  0.79816084    -0.38900
N1910       N  0.34305184  0.77409743  0.78970186    -0.38900
N1911       N  0.47547417  0.93995943  0.73605224    -0.38300
N1912       N  0.40249884  0.76675743  0.87680059    -0.38300
C1913       C  0.27052975  0.91691906  0.74878443    -0.05000
C1914       C  0.26523978  0.91428989  0.79466784    -0.02100
C1915       C  0.26057038  0.93838810  0.81715743     0.02900
C1916       C  0.25457060  0.96181612  0.79371028    -0.05000
C1917       C  0.25566795  0.96190523  0.74714446    -0.02100
C1918       C  0.26462511  0.94009003  0.72465293     0.02900
C1919       C  0.26498833  0.88679043  0.81938175     0.37500
C1920       C  0.24785071  0.98436324  0.72270338     0.37500
C1921       C  0.26878796  0.94222899  0.67719913     0.35900
C1922       C  0.26289876  0.93922124  0.86506415     0.35900
N1923       N  0.27196389  0.94381486  0.63924596    -0.38900
N1924       N  0.26495014  0.93927157  0.90309257    -0.38900
N1925       N  0.24155817  0.00234289  0.70328325    -0.38300
N1926       N  0.26404867  0.86499531  0.84015234    -0.38300
C1927       C  0.39959940  0.98651844  0.69162122    -0.05000
C1928       C  0.38704792  0.00863565  0.70068617    -0.02100
C1929       C  0.40168950  0.04111953  0.67981190     0.02900
C1930       C  0.42908097  0.05156606  0.64967597    -0.05000
C1931       C  0.44523941  0.03161410  0.64758046    -0.02100
C1932       C  0.43025952  0.99923090  0.66805569     0.02900
C1933       C  0.35951573  0.99821199  0.73225950     0.37500
C1934       C  0.47634788  0.04274386  0.62236835     0.37500
C1935       C  0.44509824  0.97785402  0.66200792     0.35900
C1936       C  0.38771014  0.06290186  0.68832201     0.35900
N1937       N  0.45699604  0.96098503  0.65624165    -0.38900
N1938       N  0.37663046  0.08035320  0.69533597    -0.38900
N1939       N  0.50062631  0.04991543  0.60190181    -0.38300
N1940       N  0.33834118  0.99078543  0.75853543    -0.38300
C1941       C  0.89300986  0.80191097  0.80364884    -0.05000
C1942       C  0.88483497  0.77677638  0.77070628    -0.02100
C1943       C  0.91068297  0.77911266  0.74247890     0.02900
C1944       C  0.94520584  0.80539832  0.74808985    -0.05000
C1945       C  0.95399056  0.82824743  0.78368299    -0.02100
C1946       C  0.92804245  0.82673100  0.81121470     0.02900
C1947       C  0.84961472  0.74934842  0.76386712     0.37500
C1948       C  0.98961542  0.85449192  0.79044390     0.37500
C1949       C  0.93769894  0.85080460  0.84728659     0.35900
C1950       C  0.90128394  0.75519236  0.70622119     0.35900
N1951       N  0.94604842  0.87023262  0.87595972    -0.38900
N1952       N  0.89299195  0.73583207  0.67749233    -0.38900
N1953       N  0.01807209  0.87534430  0.79579371    -0.38300
N1954       N  0.82164489  0.72724977  0.75846325    -0.38300
C1955       C  0.91493344  0.81325418  0.54991573    -0.05000
C1956       C  0.88006864  0.78643985  0.54824430    -0.02100
C1957       C  0.85621566  0.78984473  0.52199445     0.02900
C1958       C  0.86813824  0.81873416  0.99414194    -0.05000
C1959       C  0.90300847  0.84540574  0.99578237    -0.02100
C1960       C  0.92524446  0.84361015  0.52519152     0.02900
C1961       C  0.86839014  0.75511913  0.57308328     0.37500
C1962       C  0.91523778  0.87623875  0.96927318     0.37500
C1963       C  0.96150535  0.87158053  0.02490130     0.35900
C1964       C  0.82012477  0.76367759  0.52382375     0.35900
N1965       N  0.98944746  0.89454923  0.02564821    -0.38900
N1966       N  0.79128865  0.74300477  0.52633306    -0.38900
N1967       N  0.92493299  0.90102317  0.94876747    -0.38300
N1968       N  0.85856200  0.72966767  0.59207520    -0.38300
C1969       C  0.11394272  0.92782497  0.97309302    -0.05000
C1970       C  0.08039010  0.90684409  0.95522659    -0.02100
C1971       C  0.05388476  0.87998382  0.98046596     0.02900
C1972       C  0.05951331  0.87028504  0.52021031    -0.05000
C1973       C  0.09389875  0.88490837  0.53409043    -0.02100
C1974       C  0.12089583  0.91220631  0.51042064     0.02900
C1975       C  0.07261880  0.91244327  0.91081629     0.37500
C1976       C  0.10183063  0.87089307  0.57214181     0.37500
C1977       C  0.15547655  0.92765245  0.52755576     0.35900
C1978       C  0.01974371  0.85921759  0.96212068     0.35900
N1979       N  0.18289556  0.93950382  0.54165673    -0.38900
N1980       N  0.99260061  0.84252909  0.94727691    -0.38900
N1981       N  0.10899498  0.85975569  0.60170342    -0.38300
N1982       N  0.06581017  0.91663195  0.87556643    -0.38300
C1983       C  0.08544344  0.89046421  0.71735836    -0.05000
C1984       C  0.10789486  0.88264225  0.73994390    -0.02100
C1985       C  0.12660780  0.90221348  0.77676208     0.02900
C1986       C  0.12212658  0.92899688  0.79251228    -0.05000
C1987       C  0.09999361  0.93695195  0.76929817    -0.02100
C1988       C  0.08418325  0.91969486  0.73017725     0.02900
C1989       C  0.11209820  0.85446552  0.72590637     0.37500
C1990       C  0.09158053  0.96169172  0.78628584     0.37500
C1991       C  0.06692857  0.93263903  0.70307801     0.35900
C1992       C  0.15029333  0.89429096  0.79807404     0.35900
N1993       N  0.05342748  0.94316752  0.68145009    -0.38900
N1994       N  0.16892323  0.88749832  0.81478390    -0.38900
N1995       N  0.08457211  0.98115929  0.79965717    -0.38300
N1996       N  0.11564542  0.83210418  0.71495589    -0.38300
C1997       C  0.06382975  0.76354567  0.56852019    -0.05000
C1998       C  0.07860032  0.74704187  0.59052534    -0.02100
C1999       C  0.09425225  0.73200259  0.56632736     0.02900
C2000       C  0.09525213  0.73277756  0.51906782    -0.05000
C2001       C  0.08389317  0.75259334  0.49752049    -0.02100
C2002       C  0.06829605  0.76776273  0.52189839     0.02900
C2003       C  0.07576411  0.74336151  0.63821776     0.37500
C2004       C  0.08647833  0.75632905  0.95020547     0.37500
C2005       C  0.05652197  0.78739730  0.49814651     0.35900
C2006       C  0.10831091  0.71494912  0.59147146     0.35900
N2007       N  0.04736600  0.80270642  0.47784073    -0.38900
N2008       N  0.11849442  0.70155908  0.61385689    -0.38900
N2009       N  0.08830406  0.75890435  0.91218311    -0.38300
N2010       N  0.07351726  0.74031252  0.67618456    -0.38300
C2011       C  0.19179547  0.72549518  0.57753905    -0.05000
C2012       C  0.20223057  0.71917459  0.61817844    -0.02100
C2013       C  0.22657896  0.74683256  0.64431083     0.02900
C2014       C  0.24090537  0.78154339  0.62979521    -0.05000
C2015       C  0.22728635  0.78739848  0.59085941    -0.02100
C2016       C  0.20336255  0.75959894  0.56484511     0.02900
C2017       C  0.18935524  0.68402305  0.63178440     0.37500
C2018       C  0.23829106  0.82190074  0.57599918     0.37500
C2019       C  0.19145022  0.76643363  0.52391282     0.35900
C2020       C  0.23731260  0.73874907  0.68529746     0.35900
N2021       N  0.18262842  0.77292298  0.49150952    -0.38900
N2022       N  0.24592370  0.73210725  0.71779311    -0.38900
N2023       N  0.24688446  0.84926976  0.56373742    -0.38300
N2024       N  0.17903437  0.65595231  0.64247036    -0.38300
C2025       C  0.22729239  0.75142372  0.88087768    -0.05000
C2026       C  0.21773825  0.75917815  0.84001377    -0.02100
C2027       C  0.24280669  0.78403690  0.81162390     0.02900
C2028       C  0.27781613  0.80109938  0.82308385    -0.05000
C2029       C  0.28753632  0.79407742  0.86413740    -0.02100
C2030       C  0.26231852  0.76938407  0.89306095     0.02900
C2031       C  0.18216637  0.74080034  0.82595440     0.37500
C2032       C  0.32339413  0.81241741  0.87667090     0.37500
C2033       C  0.27222111  0.76337487  0.93598821     0.35900
C2034       C  0.23239554  0.79244439  0.77057314     0.35900
N2035       N  0.28000538  0.75872679  0.97042038    -0.38900
N2036       N  0.22383668  0.79923535  0.73816528    -0.38900
N2037       N  0.35201398  0.82711367  0.88677791    -0.38300
N2038       N  0.15397407  0.72631177  0.81404060    -0.38300
C2039       C  0.93489301  0.69849351  0.68468774    -0.05000
C2040       C  0.93519618  0.69804033  0.73194501    -0.02100
C2041       C  0.91916268  0.66677336  0.75574299     0.02900
C2042       C  0.90226367  0.63532413  0.73327272    -0.05000
C2043       C  0.90004650  0.63588730  0.68622606    -0.02100
C2044       C  0.91536557  0.66715843  0.66251166     0.02900
C2045       C  0.95288976  0.72944202  0.75736944     0.37500
C2046       C  0.88498433  0.60467930  0.66046697     0.37500
C2047       C  0.91308385  0.66669675  0.61469613     0.35900
C2048       C  0.92368291  0.66707894  0.80320826     0.35900
N2049       N  0.91117358  0.66624067  0.57662792    -0.38900
N2050       N  0.92773072  0.66730681  0.84089679    -0.38900
N2051       N  0.87470688  0.58135045  0.63711518    -0.38300
N2052       N  0.96676445  0.75335810  0.77977050    -0.38300
C2053       C  0.80747727  0.52575498  0.66929395    -0.05000
C2054       C  0.79702375  0.54935277  0.67930352    -0.02100
C2055       C  0.77453081  0.55281617  0.65111402     0.02900
C2056       C  0.76098933  0.53142122  0.61375537    -0.05000
C2057       C  0.77322544  0.50940121  0.60223989    -0.02100
C2058       C  0.79683302  0.50691953  0.62978254     0.02900
C2059       C  0.80786975  0.56899504  0.71992043     0.37500
C2060       C  0.76066908  0.48847192  0.56284674     0.37500
C2061       C  0.80839178  0.48340440  0.61903914     0.35900
C2062       C  0.76334716  0.57650650  0.66298133     0.35900
N2063       N  0.81757086  0.46460726  0.61044811    -0.38900
N2064       N  0.75467414  0.59550507  0.67276107    -0.38900
N2065       N  0.75035755  0.47163192  0.53156890    -0.38300
N2066       N  0.81563696  0.58490344  0.75207786    -0.38300
C2067       C  0.71612995  0.51172491  0.92642958    -0.05000
C2068       C  0.70633687  0.49439335  0.88548436    -0.02100
C2069       C  0.73164579  0.49597938  0.85593037     0.02900
C2070       C  0.76700087  0.51513965  0.86691176    -0.05000
C2071       C  0.77656406  0.53304384  0.90745005    -0.02100
C2072       C  0.75154461  0.53169729  0.93639248     0.02900
C2073       C  0.67026027  0.47415362  0.87439267     0.37500
C2074       C  0.81221868  0.55148363  0.92135823     0.37500
C2075       C  0.76281821  0.55124858  0.97696020     0.35900
C2076       C  0.72135080  0.47808995  0.81414902     0.35900
N2077       N  0.77268013  0.56648946  0.50955879    -0.38900
N2078       N  0.71319737  0.46384481  0.78071446    -0.38900
N2079       N  0.84032555  0.56613356  0.93357375    -0.38300
N2080       N  0.64142208  0.45808771  0.86557070    -0.38300
C2081       C  0.96709888  0.57585842  0.85074832    -0.05000
C2082       C  0.99945791  0.59155378  0.82985783    -0.02100
C2083       C  0.02985771  0.60557682  0.85516075     0.02900
C2084       C  0.02869962  0.60516249  0.90227096    -0.05000
C2085       C  0.99630485  0.58704986  0.92303050    -0.02100
C2086       C  0.96581874  0.57247227  0.89764544     0.02900
C2087       C  0.00192953  0.59535629  0.78219902     0.37500
C2088       C  0.99401313  0.58457623  0.97077057     0.37500
C2089       C  0.93319057  0.55451179  0.92079459     0.35900
C2090       C  0.06234034  0.62084202  0.83163246     0.35900
N2091       N  0.90767516  0.54071530  0.94037671    -0.38900
N2092       N  0.08765483  0.63299269  0.81163575    -0.38900
N2093       N  0.99204963  0.58245995  0.00883105    -0.38300
N2094       N  0.00399374  0.59854624  0.74424390    -0.38300
C2095       C  0.75031947  0.21321662  0.88629134    -0.05000
C2096       C  0.75519156  0.19902307  0.92524410    -0.02100
C2097       C  0.77725195  0.22054399  0.95850473     0.02900
C2098       C  0.79436179  0.25654297  0.95347821    -0.05000
C2099       C  0.79108335  0.27056842  0.91322012    -0.02100
C2100       C  0.76864744  0.24897707  0.88021269     0.02900
C2101       C  0.73610596  0.16227410  0.93300805     0.37500
C2102       C  0.81161648  0.30713930  0.90459073     0.37500
C2103       C  0.76481126  0.26362440  0.83963360     0.35900
C2104       C  0.78116555  0.20516508  0.99840353     0.35900
N2105       N  0.76170390  0.27529457  0.80733740    -0.38900
N2106       N  0.78428068  0.19274194  0.02998037    -0.38900
N2107       N  0.82791229  0.33620322  0.89715750    -0.38300
N2108       N  0.72127579  0.13316482  0.94046620    -0.38300
C2109       C  0.78795727  0.25112703  0.63275362    -0.05000
C2110       C  0.75415149  0.23040960  0.61546144    -0.02100
C2111       C  0.72799314  0.20339256  0.64070831     0.02900
C2112       C  0.73472520  0.19761826  0.68408037    -0.05000
C2113       C  0.76860537  0.21718563  0.70062179    -0.02100
C2114       C  0.79516351  0.24275630  0.67460082     0.02900
C2115       C  0.74563114  0.23659062  0.57170142     0.37500
C2116       C  0.77622566  0.21254311  0.74568271     0.37500
C2117       C  0.82956221  0.26072445  0.69238700     0.35900
C2118       C  0.69359708  0.18303119  0.62291983     0.35900
N2119       N  0.85647759  0.27377953  0.70819825    -0.38900
N2120       N  0.66626311  0.16686076  0.60846760    -0.38900
N2121       N  0.78289121  0.21012135  0.78177165    -0.38300
N2122       N  0.73827993  0.24139020  0.53707003    -0.38300
C2123       C  0.88657728  0.41544953  0.62916809    -0.05000
C2124       C  0.89593414  0.44954540  0.62024563    -0.02100
C2125       C  0.89093493  0.46878088  0.65273617     0.02900
C2126       C  0.87570997  0.45361250  0.69389662    -0.05000
C2127       C  0.86904698  0.42060530  0.70396882    -0.02100
C2128       C  0.87543438  0.40201258  0.67213470     0.02900
C2129       C  0.90906407  0.46433455  0.57703482     0.37500
C2130       C  0.85568955  0.40584791  0.74709358     0.37500
C2131       C  0.87090416  0.36905363  0.68367673     0.35900
C2132       C  0.90030867  0.50368934  0.64254197     0.35900
N2133       N  0.86772702  0.34295154  0.69304956    -0.38900
N2134       N  0.90822351  0.53146954  0.63315013    -0.38900
N2135       N  0.84497988  0.39412995  0.78148484    -0.38300
N2136       N  0.91966526  0.47619349  0.54266297    -0.38300
C2137       C  0.86241601  0.41611255  0.95039877    -0.05000
C2138       C  0.83901619  0.42732300  0.96104741    -0.02100
C2139       C  0.83672878  0.45151073  0.93414347     0.02900
C2140       C  0.85761513  0.46508002  0.89660808    -0.05000
C2141       C  0.88214781  0.45575044  0.88710256    -0.02100
C2142       C  0.88460698  0.43152100  0.91350201     0.02900
C2143       C  0.81659729  0.41407639  0.99926058     0.37500
C2144       C  0.90512565  0.47121167  0.84967973     0.37500
C2145       C  0.91002978  0.42260918  0.90163428     0.35900
C2146       C  0.81168582  0.46137584  0.94382587     0.35900
N2147       N  0.93040205  0.41569714  0.89192340    -0.38900
N2148       N  0.79174310  0.46934083  0.95116719    -0.38900
N2149       N  0.92369964  0.48339684  0.82011447    -0.38300
N2150       N  0.79761013  0.40249608  0.52904488    -0.38300
C2151       C  0.92565122  0.29726005  0.94752007    -0.05000
C2152       C  0.91916496  0.29032004  0.90190657    -0.02100
C2153       C  0.92527662  0.26562384  0.88120202     0.02900
C2154       C  0.93427327  0.24536844  0.90700357    -0.05000
C2155       C  0.93577979  0.24956241  0.95323546    -0.02100
C2156       C  0.93644803  0.27792875  0.97191297     0.02900
C2157       C  0.90700691  0.30885748  0.87652589     0.37500
C2158       C  0.93895722  0.22595067  0.98237275     0.37500
C2159       C  0.94764142  0.28585454  0.51715576     0.35900
C2160       C  0.92312202  0.26164669  0.83380028     0.35900
N2161       N  0.95727419  0.29162359  0.55317317    -0.38900
N2162       N  0.92133969  0.25835000  0.79588194    -0.38900
N2163       N  0.94142587  0.20813193  0.00736567    -0.38300
N2164       N  0.89735935  0.32380367  0.85630013    -0.38300
C2165       C  0.10965110  0.19577642  0.70129767    -0.05000
C2166       C  0.07947811  0.16331406  0.70941802    -0.02100
C2167       C  0.05079928  0.16120781  0.73071116     0.02900
C2168       C  0.05176558  0.19088139  0.74612296    -0.05000
C2169       C  0.07930792  0.22310032  0.73282513    -0.02100
C2170       C  0.10856388  0.22576426  0.71191801     0.02900
C2171       C  0.07726868  0.13139912  0.69693946     0.37500
C2172       C  0.07663118  0.25329319  0.73803872     0.37500
C2173       C  0.13705872  0.25962631  0.70099915     0.35900
C2174       C  0.01899616  0.12842869  0.73349232     0.35900
N2175       N  0.15967540  0.28672062  0.69234463    -0.38900
N2176       N  0.99364523  0.10220707  0.73374944    -0.38900
N2177       N  0.07382110  0.27711840  0.74044516    -0.38300
N2178       N  0.07518177  0.10579461  0.68713434    -0.38300
C2179       C  0.13588547  0.19844453  0.50999733    -0.05000
C2180       C  0.13878676  0.19632010  0.96254687    -0.02100
C2181       C  0.11429533  0.19717435  0.93422708     0.02900
C2182       C  0.08656488  0.19929536  0.95203927    -0.05000
C2183       C  0.08442610  0.20216097  0.49878418    -0.02100
C2184       C  0.10954988  0.20332159  0.52667190     0.02900
C2185       C  0.16591092  0.19233045  0.94388151     0.37500
C2186       C  0.05594959  0.20343446  0.51894988     0.37500
C2187       C  0.10892794  0.21183707  0.57261756     0.35900
C2188       C  0.11831954  0.19700774  0.88680435     0.35900
N2189       N  0.10758331  0.21933875  0.60861372    -0.38900
N2190       N  0.12165357  0.19724417  0.84893240    -0.38900
N2191       N  0.03346747  0.20446914  0.53537810    -0.38300
N2192       N  0.18750047  0.18904510  0.92888030    -0.38300
C2193       C  0.94406707  0.13251682  0.98722942    -0.05000
C2194       C  0.91060849  0.12666718  0.48621091    -0.02100
C2195       C  0.88624484  0.10556084  0.51823515     0.02900
C2196       C  0.89458453  0.08814241  0.55016774    -0.05000
C2197       C  0.92828227  0.09340706  0.54998223    -0.02100
C2198       C  0.95265344  0.11532219  0.01862041     0.02900
C2199       C  0.90023347  0.14092503  0.95086483     0.37500
C2200       C  0.93832395  0.07694931  0.58271282     0.37500
C2201       C  0.98631446  0.11899280  0.01739610     0.35900
C2202       C  0.85214819  0.10081370  0.51630482     0.35900
N2203       N  0.01292226  0.12138431  0.01621228    -0.38900
N2204       N  0.82510878  0.09736790  0.51439962    -0.38900
N2205       N  0.94638640  0.06378271  0.60866095    -0.38300
N2206       N  0.89188724  0.15179450  0.92220238    -0.38300
C2207       C  0.85698014  0.04225824  0.75187914    -0.05000
C2208       C  0.85010324  0.06665754  0.76999545    -0.02100
C2209       C  0.87649055  0.09632653  0.79152786     0.02900
C2210       C  0.90859729  0.09943558  0.80030665    -0.05000
C2211       C  0.91217522  0.07080712  0.79053527    -0.02100
C2212       C  0.88746776  0.04352368  0.76437690     0.02900
C2213       C  0.81521494  0.05937464  0.77029304     0.37500
C2214       C  0.94119618  0.06904164  0.80685910     0.37500
C2215       C  0.89329526  0.01643814  0.75015378     0.35900
C2216       C  0.87014276  0.12297421  0.80575688     0.35900
N2217       N  0.89777086  0.99476914  0.73868161    -0.38900
N2218       N  0.86507510  0.14430561  0.81697045    -0.38900
N2219       N  0.96391798  0.06708498  0.82041633    -0.38300
N2220       N  0.78693716  0.05229561  0.77317359    -0.38300
C2221       C  0.04264753  0.38889303  0.63645979    -0.05000
C2222       C  0.01304767  0.36621187  0.66136249    -0.02100
C2223       C  0.97971655  0.35229741  0.64346625     0.02900
C2224       C  0.97537018  0.35928673  0.59948661    -0.05000
C2225       C  0.00544260  0.37870337  0.57297869    -0.02100
C2226       C  0.03867719  0.39407306  0.59171435     0.02900
C2227       C  0.01683060  0.35746755  0.70610867     0.37500
C2228       C  0.00256807  0.38322850  0.52610030     0.37500
C2229       C  0.06862021  0.41683766  0.56548570     0.35900
C2230       C  0.95021311  0.33296508  0.67170806     0.35900
N2231       N  0.09235474  0.43501305  0.54431406    -0.38900
N2232       N  0.92724415  0.31796773  0.69538306    -0.38900
N2233       N  0.00048562  0.38695865  0.48872140    -0.38300
N2234       N  0.01933798  0.34981207  0.74163777    -0.38300
C2235       C  0.09132092  0.37730976  0.80337048    -0.05000
C2236       C  0.10844122  0.35826025  0.80452235    -0.02100
C2237       C  0.09314774  0.32599977  0.82557031     0.02900
C2238       C  0.06066262  0.31218922  0.84478130    -0.05000
C2239       C  0.04723525  0.33375653  0.85154860    -0.02100
C2240       C  0.06217506  0.36610426  0.83058123     0.02900
C2241       C  0.14138773  0.37075634  0.78327270     0.37500
C2242       C  0.02017159  0.32415450  0.88342712     0.37500
C2243       C  0.04651740  0.38676632  0.83578584     0.35900
C2244       C  0.11053507  0.30671318  0.82713956     0.35900
N2245       N  0.03383286  0.40307855  0.84008850    -0.38900
N2246       N  0.12435099  0.29131273  0.82867763    -0.38900
N2247       N  0.99999938  0.31820215  0.91058553    -0.38300
N2248       N  0.16742722  0.37942102  0.76630687    -0.38300
C2249       C  0.21500460  0.46463354  0.79560476    -0.05000
C2250       C  0.23586070  0.45055473  0.78721627    -0.02100
C2251       C  0.25320824  0.44562110  0.82210102     0.02900
C2252       C  0.25196550  0.45718848  0.86493555    -0.05000
C2253       C  0.23098730  0.47100239  0.87344969    -0.02100
C2254       C  0.21161713  0.47362375  0.83922743     0.02900
C2255       C  0.24134287  0.44310814  0.74234410     0.37500
C2256       C  0.23024276  0.48362596  0.91717115     0.37500
C2257       C  0.18820742  0.48553845  0.84917039     0.35900
C2258       C  0.27412321  0.43067185  0.81292473     0.35900
N2259       N  0.16951788  0.49498366  0.85718300    -0.38900
N2260       N  0.29047512  0.41851544  0.80484506    -0.38900
N2261       N  0.22978306  0.49402724  0.95184010    -0.38300
N2262       N  0.24579885  0.43724567  0.70662294    -0.38300
C2263       C  0.28559579  0.48747914  0.56184841    -0.05000
C2264       C  0.29295478  0.50679139  0.60077962    -0.02100
C2265       C  0.26592328  0.50368680  0.62781979     0.02900
C2266       C  0.23078554  0.48218560  0.61513322    -0.05000
C2267       C  0.22379140  0.46216534  0.57640309    -0.02100
C2268       C  0.25087767  0.46414446  0.55094936     0.02900
C2269       C  0.32845107  0.53077926  0.61225500     0.37500
C2270       C  0.18878751  0.43980213  0.56147713     0.37500
C2271       C  0.24195888  0.44104181  0.01352567     0.35900
C2272       C  0.27490652  0.52231420  0.66919446     0.35900
N2273       N  0.23458272  0.42242313  0.98406853    -0.38900
N2274       N  0.28222644  0.53707128  0.70228733    -0.38900
N2275       N  0.16099619  0.42198914  0.54919020    -0.38300
N2276       N  0.35679281  0.54996939  0.62121029    -0.38300
C2277       C  0.12828330  0.58058691  0.55611310    -0.05000
C2278       C  0.14183377  0.55958105  0.54679476    -0.02100
C2279       C  0.14039700  0.53651704  0.57894233     0.02900
C2280       C  0.12582684  0.53469364  0.62105089    -0.05000
C2281       C  0.11071679  0.55454661  0.62953523    -0.02100
C2282       C  0.11169729  0.57722294  0.59705107     0.02900
C2283       C  0.15731094  0.56177630  0.50404982     0.37500
C2284       C  0.09658962  0.55380270  0.67282448     0.37500
C2285       C  0.09743043  0.59857654  0.60723304     0.35900
C2286       C  0.15461522  0.51513960  0.56869327     0.35900
N2287       N  0.08594862  0.61537631  0.61619182    -0.38900
N2288       N  0.16622558  0.49838682  0.56021572    -0.38900
N2289       N  0.08550496  0.55337377  0.70739201    -0.38300
N2290       N  0.16969096  0.56380251  0.97028941    -0.38300
C2291       C  0.14122930  0.55497473  0.80070295    -0.05000
C2292       C  0.12201198  0.54638576  0.84056617    -0.02100
C2293       C  0.12132029  0.57206142  0.86627963     0.02900
C2294       C  0.14069578  0.60703997  0.85389879    -0.05000
C2295       C  0.15846173  0.61563945  0.81338273    -0.02100
C2296       C  0.15805516  0.58984824  0.78644588     0.02900
C2297       C  0.10334859  0.51125538  0.85634120     0.37500
C2298       C  0.17862006  0.65132857  0.80032581     0.37500
C2299       C  0.17437333  0.59951393  0.74344412     0.35900
C2300       C  0.10028616  0.56231243  0.90586660     0.35900
N2301       N  0.18716320  0.60711356  0.70898443    -0.38900
N2302       N  0.08324413  0.55428141  0.93716333    -0.38900
N2303       N  0.19492055  0.67982223  0.79000286    -0.38300
N2304       N  0.08838596  0.48330838  0.86917130    -0.38300
loop_ 
_geom_bond_atom_site_label_1 
_geom_bond_atom_site_label_2 
_geom_bond_distance 
_geom_bond_site_symmetry_2 
_ccdc_geom_bond_type 
O1           C16   1.251       .  A
O1           Al9   1.867       .  S
C2           O12   1.277       .  A
C2            O3   1.284       .  A
C2         C1097   1.479       .  S
O3           Al5   1.943       .  S
O4            C6   1.254       .  A
O4           Al5   1.862       .  S
Al5          O13   1.912       .  S
Al5          O15   1.951       .  S
Al5          O14   1.773       .  S
C6           O19   1.275       .  A
C6         C1083   1.506       .  S
O7           C17   1.249       .  A
O7           Al9   1.906       .  S
O8           C21   1.276       .  A
O8          Al18   1.864       .  S
Al9          O22   1.979       .  S
Al9          O19   1.958       .  S
Al9          O14   1.763       .  S
O10          C17   1.248       .  A
O10         Al18   1.913       .  S
O11          C20   1.250       .  A
O11         Al18   1.909       .  S
O12         Al18   1.878       .  S
O13          C20   1.255       .  A
O14         Al18   1.777       .  S
O15          C16   1.268       .  A
C16        C1069   1.496       .  S
C17        C1139   1.519       .  S
C20        C1114   1.516       .  S
C21          O22   1.294       .  A
C21        C1128   1.486       .  S
O23          C38   1.264       .  A
O23         Al31   1.896   1_655  S
C24          O34   1.267       .  A
C24          O25   1.263       .  A
C24        C1016   1.498       .  S
O25         Al27   1.895       .  S
O26          C28   1.255       .  A
O26         Al27   1.919       .  S
Al27         O35   1.880   1_455  S
Al27         O37   1.921   1_455  S
Al27         O36   1.804   1_455  S
C28          O41   1.249       .  A
C28        C1030   1.498       .  S
O29          C39   1.265       .  A
O29         Al31   1.903       .  S
O30          C43   1.268       .  A
O30         Al40   1.961       .  S
Al31         O44   1.854   1_455  S
Al31         O41   1.864       .  S
Al31         O36   1.781   1_455  S
O32          C39   1.271       .  A
O32         Al40   1.944   1_455  S
O33          C42   1.267       .  A
O33         Al40   1.953       .  S
O34         Al40   1.925   1_455  S
O35          C42   1.253       .  A
O36         Al40   1.803       .  S
O37          C38   1.265       .  A
C38        C1041   1.485       .  S
C39        C1086   1.486       .  S
C42        C1058   1.511       .  S
C43          O44   1.251       .  A
C43        C1002   1.497       .  S
O45          C60   1.244       .  A
O45       Al1205   1.801       .  S
C46          O56   1.274       .  A
C46          O47   1.294       .  A
C46         C971   1.482       .  S
O47         Al49   1.989       .  S
O48          C50   1.251       .  A
O48         Al49   1.859       .  S
Al49       O1209   1.911   1_554  S
Al49       O1211   1.989   1_554  S
Al49         O58   1.767       .  S
C50          O63   1.274       .  A
C50        C1072   1.510       .  S
O51          C61   1.254       .  A
O51         Al53   1.907       .  S
O52          C65   1.275       .  A
O52       Al1214   1.867       .  S
Al53         O66   1.954       .  S
Al53         O63   1.965       .  S
Al53       O1197   1.801       .  S
Al53         O58   1.760       .  S
O54          C61   1.250       .  A
O54         Al62   1.906       .  S
O55          C64   1.248       .  A
O55       Al1214   1.908       .  S
O56         Al62   1.852       .  S
O57          C64   1.253       .  A
O57       Al1201   1.912       .  S
O58         Al62   1.777       .  S
O59          C60   1.275       .  A
O59       Al1201   1.991       .  S
C60         C999   1.495       .  S
C61         C957   1.501       .  S
Al62       O1204   1.867   1_554  S
Al62       O1207   1.907       .  S
C64         C985   1.517       .  S
C65        O1218   1.286       .  A
C65         C946   1.486       .  S
O66        C1217   1.286   1_554  A
O67          C82   1.243       .  A
O67         Al75   1.832       .  S
C68          O78   1.272       .  A
C68          O69   1.294       .  A
C68         C988   1.486       .  S
O69         Al71   1.996       .  S
O70          C72   1.250       .  A
O70         Al71   1.868       .  S
Al71         O79   1.905       .  S
Al71         O81   1.976       .  S
Al71         O80   1.755       .  S
C72          O85   1.268       .  A
C72         C929   1.507       .  S
O73          C83   1.240       .  A
O73         Al75   1.863       .  S
O74          C87   1.270       .  A
O74         Al84   1.855       .  S
Al75         O88   1.981       .  S
Al75         O85   1.941       .  S
Al75         O80   1.761       .  S
O76          C83   1.257       .  A
O76         Al84   1.952       .  S
O77          C86   1.258       .  A
O77         Al84   1.955       .  S
O78         Al84   1.861       .  S
O79          C86   1.251       .  A
O80         Al84   1.791       .  S
O81          C82   1.277       .  A
C82         C890   1.505       .  S
C83         C974   1.478       .  S
C86         C918   1.507       .  S
C87          O88   1.289       .  A
C87         C901   1.471       .  S
O89        C1256   1.246   1_554  A
O89         Al97   1.845       .  S
C90         O100   1.273       .  A
C90          O91   1.298       .  A
C90        C1142   1.500       .  S
O91         Al93   2.018       .  S
O92          C94   1.248       .  A
O92         Al93   1.852       .  S
Al93        O101   1.890       .  S
Al93        O103   1.987       .  S
Al93        O102   1.753       .  S
C94         O107   1.271       .  A
C94         C932   1.510       .  S
O95         C105   1.243       .  A
O95         Al97   1.876       .  S
O96         C109   1.272       .  A
O96       Al1258   1.864   1_554  S
Al97        O110   1.992       .  S
Al97       O1259   1.958   1_554  S
Al97       O1254   1.763   1_554  S
O98         C105   1.255       .  A
O98       Al1258   1.935   1_554  S
O99         C108   1.254       .  A
O99        Al106   1.940       .  S
O100       Al106   1.866       .  S
O101        C108   1.246       .  A
O102       Al106   1.788       .  S
O102      Al1249   1.762       .  S
O103        C104   1.277       .  A
C104       O1241   1.246       .  A
C104       C2000   1.518       .  S
C105       C1125   1.481       .  S
Al106      O1248   1.863       .  S
Al106      O1250   1.934       .  S
O107      Al1249   1.958       .  S
C108        C873   1.494       .  S
C109        O110   1.292       .  A
C109        C859   1.485       .  S
O111        C126   1.251       .  A
O111       Al119   1.878   1_455  S
C112        O122   1.270       .  A
C112        O113   1.291       .  A
C112        C792   1.482       .  S
O113       Al115   1.996   1_655  S
O114        C116   1.248       .  A
O114       Al115   1.841   1_655  S
Al115       O123   1.878       .  S
Al115       O125   1.948       .  S
Al115       O124   1.762       .  S
C116        O129   1.280       .  A
C116        C887   1.511       .  S
O117        C127   1.250       .  A
O117       Al119   1.918       .  S
O118        C131   1.272       .  A
O118       Al128   1.859   1_455  S
Al119       O132   2.002   1_655  S
Al119       O129   1.976       .  S
Al119       O124   1.760   1_655  S
O120        C127   1.245       .  A
O120       Al128   1.877       .  S
O121        C130   1.249       .  A
O121       Al128   1.899   1_455  S
O122       Al128   1.863       .  S
O123        C130   1.244       .  A
O124       Al128   1.777   1_455  S
O125        C126   1.268       .  A
C126        C845   1.511       .  S
C127        C803   1.497       .  S
C130        C831   1.486       .  S
C131        O132   1.296       .  A
C131        C820   1.492       .  S
O133        C148   1.261       .  A
O133       Al141   1.905       .  S
C134        O144   1.266       .  A
C134        O135   1.265       .  A
C134        C736   1.503       .  S
O135       Al137   1.905       .  S
O136        C138   1.254       .  A
O136       Al137   1.891       .  S
Al137       O145   1.879       .  S
Al137       O147   1.913       .  S
Al137       O146   1.789       .  S
C138        O151   1.259       .  A
C138        C750   1.482       .  S
O139        C149   1.266       .  A
O139       Al141   1.918       .  S
O140        C153   1.266       .  A
O140       Al150   1.925       .  S
Al141       O154   1.888       .  S
Al141       O151   1.916       .  S
Al141       O146   1.791       .  S
O142        C149   1.262       .  A
O142       Al150   1.915       .  S
O143        C152   1.262       .  A
O143       Al150   1.928       .  S
O144       Al150   1.918       .  S
O145        C152   1.251       .  A
O146       Al150   1.800       .  S
O147        C148   1.261       .  A
C148        C876   1.486       .  S
C149        C775   1.484       .  S
C152        C862   1.515       .  S
C153        O154   1.262       .  A
C153        C761   1.485       .  S
O155        C170   1.253       .  A
O155       Al163   1.861       .  S
C156        O166   1.267       .  A
C156        O157   1.285       .  A
C156        C834   1.490       .  S
O157       Al159   1.970       .  S
O158        C160   1.244       .  A
O158       Al159   1.809       .  S
Al159       O167   1.905       .  S
Al159       O169   1.967       .  S
Al159       O168   1.761   1_565  S
C160        O173   1.272   1_565  A
C160        C764   1.489       .  S
O161        C171   1.254       .  A
O161       Al163   1.918       .  S
O162        C175   1.270       .  A
O162       Al172   1.844       .  S
Al163       O176   1.984       .  S
Al163       O173   1.971       .  S
Al163       O168   1.772       .  S
O164        C171   1.249       .  A
O164       Al172   1.912       .  S
O165        C174   1.253       .  A
O165       Al172   1.921   1_565  S
O166       Al172   1.849   1_565  S
O167        C174   1.255       .  A
O168       Al172   1.770       .  S
O169        C170   1.274   1_565  A
C170        C691   1.503       .  S
C171        C719   1.483       .  S
C174        C817   1.509       .  S
C175        O176   1.290       .  A
C175        C705   1.470       .  S
O177        C192   1.250       .  A
O177       Al185   1.846       .  S
C178       O1340   1.276       .  A
C178       O1331   1.293       .  A
C178        C666   1.489       .  S
O179       C1330   1.293   1_554  A
O179       Al181   1.984       .  S
O180        C182   1.254       .  A
O180      Al1333   1.874       .  S
Al181       O189   1.921       .  S
Al181       O191   1.967       .  S
Al181      O1332   1.881       .  S
Al181       O190   1.766       .  S
C182        O195   1.273       .  A
C182        C694   1.510       .  S
O183        C193   1.253       .  A
O183      Al1337   1.911       .  S
O184        C197   1.278       .  A
O184       Al194   1.883       .  S
Al185       O198   1.969       .  S
Al185      O1335   1.905   1_554  S
Al185      O1347   1.958   1_554  S
Al185       O190   1.766       .  S
O186        C193   1.248       .  A
O186      Al1346   1.904       .  S
O187        C196   1.246       .  A
O187       Al194   1.912       .  S
O188       C1330   1.276       .  A
O188       Al194   1.852   1_556  S
O189        C196   1.252       .  A
O190       Al194   1.777       .  S
O191        C192   1.275       .  A
C192        C778   1.509       .  S
C193        C649   1.508       .  S
Al194      O1338   1.905   1_554  S
O195      Al1337   1.962       .  S
C196        C680   1.497       .  S
C197        O198   1.290       .  A
C197        C635   1.502       .  S
O199        C214   1.250       .  A
O199       Al207   1.845   1_545  S
C200        O210   1.272       .  A
C200        O201   1.289       .  A
C200        C582   1.493       .  S
O201       Al203   1.994   1_565  S
O202        C204   1.249       .  A
O202       Al203   1.853   1_565  S
Al203       O211   1.909       .  S
Al203       O213   1.962       .  S
Al203       O212   1.771   1_545  S
C204        O217   1.278       .  A
C204        C621   1.533       .  S
O205        C215   1.256       .  A
O205       Al207   1.926       .  S
O206        C219   1.273       .  A
O206       Al216   1.871   1_545  S
Al207       O220   2.010       .  S
Al207       O217   1.991       .  S
Al207       O212   1.766       .  S
O208        C215   1.250       .  A
O208       Al216   1.909       .  S
O209        C218   1.250       .  A
O209       Al216   1.909   1_545  S
O210       Al216   1.855       .  S
O211        C218   1.251       .  A
O212       Al216   1.776       .  S
O213        C214   1.270       .  A
C214        C610   1.496       .  S
C215        C593   1.504       .  S
C218       C1044   1.502       .  S
C219        O220   1.294   1_545  A
C219       C1055   1.497       .  S
O221       C1388   1.254   1_554  A
O221       Al229   1.884       .  S
C222        O232   1.264       .  A
C222        O223   1.281       .  A
C222        C747   1.492       .  S
O223       Al225   1.973       .  S
O224        C226   1.252       .  A
O224       Al225   1.866       .  S
Al225       O233   1.931       .  S
Al225       O235   1.969       .  S
Al225       O234   1.783       .  S
C226        O239   1.269       .  A
C226        C540   1.488       .  S
O227        C237   1.255       .  A
O227       Al229   1.919       .  S
O228        C241   1.263   1_556  A
O228      Al1390   1.847       .  S
Al229       O242   1.965       .  S
Al229      O1391   1.952   1_554  S
Al229      O1386   1.783   1_554  S
O230        C237   1.251   1_556  A
O230      Al1390   1.899       .  S
O231        C240   1.258       .  A
O231       Al238   1.920       .  S
O232       Al238   1.863       .  S
O233        C240   1.258       .  A
O234       Al238   1.779       .  S
O234      Al1381   1.783       .  S
O235        C236   1.272       .  A
C236       O1373   1.254       .  A
C236       C1776   1.509       .  S
C237        C733   1.515       .  S
Al238      O1380   1.847       .  S
Al238      O1382   1.900       .  S
O239      Al1381   1.951       .  S
C240        C565   1.499       .  S
C241        O242   1.281       .  A
C241        C551   1.503       .  S
O243        C258   1.243       .  A
O243       Al251   1.831       .  S
C244        O254   1.265       .  A
C244        O245   1.287       .  A
C244        C652   1.484       .  S
O245       Al247   1.993       .  S
O246        C248   1.241       .  A
O246       Al247   1.807       .  S
Al247       O255   1.870       .  S
Al247       O257   1.984       .  S
Al247       O256   1.754       .  S
C248        O261   1.280       .  A
C248        C537   1.504       .  S
O249        C259   1.256       .  A
O249       Al251   1.900       .  S
O250        C263   1.265       .  A
O250       Al260   1.843       .  S
Al251       O264   1.995       .  S
Al251       O261   2.012       .  S
Al251       O256   1.765       .  S
O252        C259   1.258       .  A
O252       Al260   1.916       .  S
O253        C262   1.261       .  A
O253       Al260   1.941       .  S
O254       Al260   1.854       .  S
O255        C262   1.247       .  A
O256       Al260   1.783       .  S
O257        C258   1.273       .  A
C258        C607   1.490       .  S
C259        C638   1.488       .  S
C262        C943   1.478       .  S
C263        O264   1.289       .  A
C263        C960   1.486       .  S
O265        C280   1.242       .  A
O265       Al273   1.826       .  S
C266        O276   1.271       .  A
C266        O267   1.300       .  A
C266        C677   1.514       .  S
O267       Al269   2.030       .  S
O268        C270   1.251       .  A
O268       Al269   1.866       .  S
Al269       O277   1.912       .  S
Al269       O279   2.007       .  S
Al269       O278   1.758       .  S
C270        O283   1.269       .  A
C270        C512   1.516       .  S
O271        C281   1.243       .  A
O271       Al273   1.881       .  S
O272        C285   1.268       .  A
O272       Al282   1.853       .  S
Al273       O286   2.004       .  S
Al273       O283   1.952       .  S
Al273       O278   1.767       .  S
O274        C281   1.257       .  A
O274       Al282   1.941       .  S
O275        C284   1.255       .  A
O275       Al282   1.932       .  S
O276       Al282   1.847       .  S
O277        C284   1.250       .  A
O278       Al282   1.781       .  S
O279        C280   1.282       .  A
C280        C523   1.528       .  S
C281        C663   1.484       .  S
C284        C495   1.513       .  S
C285        O286   1.292       .  A
C285        C481   1.483       .  S
O287        C302   1.252       .  A
O287       Al295   1.864       .  S
C288        O298   1.264       .  A
C288        O289   1.280       .  A
C288       C1027   1.502       .  S
O289       Al291   1.984       .  S
O290        C292   1.246       .  A
O290       Al291   1.830       .  S
Al291       O299   1.879       .  S
Al291       O301   1.962       .  S
Al291       O300   1.777       .  S
C292        O305   1.278       .  A
C292        C467   1.500       .  S
O293        C303   1.259       .  A
O293       Al295   1.912       .  S
O294        C307   1.257       .  A
O294       Al304   1.851       .  S
Al295       O308   1.991       .  S
Al295       O305   1.992       .  S
Al295       O300   1.776       .  S
O296        C303   1.259       .  A
O296       Al304   1.916       .  S
O297        C306   1.256       .  A
O297       Al304   1.896       .  S
O298       Al304   1.859       .  S
O299        C306   1.249       .  A
O300       Al304   1.774       .  S
O301        C302   1.271       .  A
C302        C509   1.495       .  S
C303       C1013   1.517       .  S
C306        C708   1.479       .  S
C307        O308   1.284       .  A
C307        C722   1.517       .  S
O309        C324   1.248       .  A
O309       Al317   1.849       .  S
C310        O320   1.264   1_554  A
C310        O311   1.286       .  A
C310       C1111   1.495       .  S
O311       Al313   1.990       .  S
O312       C1466   1.246       .  A
O312       Al313   1.846       .  S
Al313       O321   1.889   1_554  S
Al313      O1475   1.958   1_554  S
Al313      O1474   1.775   1_554  S
C314        O327   1.274       .  A
C314       O1464   1.246       .  A
C314       C1622   1.519       .  S
O315        C325   1.253       .  A
O315       Al317   1.895       .  S
O316        C329   1.270       .  A
O316       Al326   1.866       .  S
Al317       O330   1.976       .  S
Al317       O327   1.975       .  S
Al317       O322   1.780       .  S
O318        C325   1.250       .  A
O318       Al326   1.887       .  S
O319        C328   1.253       .  A
O319      Al1478   1.914       .  S
O320      Al1478   1.863       .  S
O321        C328   1.249       .  A
O322       Al326   1.778       .  S
O322      Al1465   1.774       .  S
O323        C324   1.271       .  A
O323      Al1465   1.960       .  S
C324        C526   1.490       .  S
C325       C1100   1.470       .  S
Al326      O1471   1.914       .  S
Al326      O1472   1.864       .  S
C328        C453   1.499   1_556  S
C329        O330   1.281       .  A
C329        C439   1.487       .  S
O331        C346   1.282       .  A
O331       Al339   1.968       .  S
C332        O342   1.290       .  A
C332        O333   1.264       .  A
C332        C568   1.513       .  S
O333       Al335   1.844       .  S
O334        C336   1.245       .  A
O334       Al335   1.876       .  S
Al335       O343   1.877       .  S
Al335       O345   1.864       .  S
Al335       O344   1.773       .  S
C336        O349   1.253       .  A
C336        C554   1.472       .  S
O337        C347   1.268       .  A
O337       Al339   1.948       .  S
O338        C351   1.277       .  A
O338       Al348   1.987       .  S
Al339       O352   1.842       .  S
Al339       O349   1.922       .  S
Al339       O344   1.775       .  S
O340        C347   1.250       .  A
O340       Al348   1.862       .  S
O341        C350   1.255       .  A
O341       Al348   1.929       .  S
O342       Al348   2.009       .  S
O343        C350   1.247       .  A
O344       Al348   1.786       .  S
O345        C346   1.269       .  A
C346        C456   1.479       .  S
C347        C411   1.489       .  S
C350        C442   1.498       .  S
C351        O352   1.251       .  A
C351        C428   1.513       .  S
O353        C368   1.281       .  A
O353       Al361   1.982       .  S
C354        O364   1.284       .  A
C354        O355   1.264       .  A
C354        C915   1.506       .  S
O355      Al1509   1.872       .  S
O356        C358   1.257       .  A
O356       Al357   1.908       .  S
Al357       O365   1.926       .  S
Al357       O367   1.875       .  S
Al357      O1507   1.871   1_554  S
Al357       O366   1.788       .  S
C358        O371   1.256       .  A
C358        C904   1.481       .  S
O359        C369   1.274       .  A
O359       Al361   1.979       .  S
O360        C373   1.273       .  A
O360      Al1522   1.972       .  S
Al361       O374   1.860       .  S
Al361       O371   1.890       .  S
Al361       O366   1.775       .  S
O362        C369   1.252   1_556  A
O362      Al1522   1.865   1_556  S
O363        C372   1.253       .  A
O363       Al370   1.896       .  S
O364       Al370   1.999       .  S
O365       C1524   1.258       .  A
O366      Al1522   1.767       .  S
O367        C368   1.266       .  A
C368        C498   1.497       .  S
C369       C1552   1.504   1_554  S
Al370      O1512   1.973       .  S
Al370      O1514   1.864       .  S
Al370      O1518   1.767       .  S
C372       O1517   1.258       .  A
C372        C484   1.498       .  S
C373        O374   1.250       .  A
C373        C425   1.494       .  S
O375        C390   1.287       .  A
O375       Al383   1.983       .  S
C376        O386   1.285       .  A
C376        O377   1.270       .  A
C376        C596   1.491       .  S
O377       Al379   1.881       .  S
O378        C380   1.252       .  A
O378       Al379   1.900       .  S
Al379       O387   1.926       .  S
Al379       O389   1.860       .  S
Al379       O388   1.783       .  S
C380        O393   1.257       .  A
C380        C579   1.498       .  S
O381        C391   1.275       .  A
O381       Al383   1.981       .  S
O382        C395   1.266       .  A
O382       Al392   1.950       .  S
Al383       O396   1.875       .  S
Al383       O393   1.935       .  S
Al383       O388   1.784       .  S
O384        C391   1.253       .  A
O384       Al392   1.844       .  S
O385        C394   1.251       .  A
O385       Al392   1.905       .  S
O386       Al392   1.985       .  S
O387        C394   1.254       .  A
O388       Al392   1.765       .  S
O389        C390   1.268       .  A
C390        C806   1.492       .  S
C391        C414   1.508       .  S
C394        C789   1.498       .  S
C395        O396   1.252       .  A
C395        C397   1.497       .  S
C397        C398   1.415       .  A
C397        C402   1.411       .  A
C398        C399   1.426       .  A
C398        C403   1.449       .  S
C399        C400   1.416       .  A
C399       C1558   1.446       .  S
C400       C1521   1.505       .  S
C400        C401   1.420       .  A
C401        C402   1.412       .  A
C401        C404   1.454       .  S
C402        C405   1.452       .  S
C403        N410   1.157       .  T
C404        N409   1.157       .  T
C405        N407   1.157       .  T
C406       C1551   1.446   1_554  S
C406        N408   1.157       .  T
C411        C412   1.409       .  A
C411        C416   1.416       .  A
C412        C413   1.407       .  A
C412        C417   1.452       .  S
C413        C414   1.424       .  A
C413        C420   1.456       .  S
C414        C415   1.416       .  A
C415        C416   1.425       .  A
C415        C418   1.447       .  S
C416        C419   1.449       .  S
C417        N424   1.157       .  T
C418        N423   1.157       .  T
C419        N421   1.157       .  T
C420        N422   1.158       .  T
C425        C426   1.416       .  A
C425        C430   1.410       .  A
C426        C427   1.426       .  A
C426        C431   1.449       .  S
C427        C428   1.415       .  A
C427        C434   1.444       .  S
C428        C429   1.426       .  A
C429        C430   1.411       .  A
C429        C432   1.456       .  S
C430        C433   1.452       .  S
C431        N438   1.157       .  T
C432        N437   1.158       .  T
C433        N435   1.157       .  T
C434        N436   1.156       .  T
C439        C440   1.409       .  A
C439        C444   1.408       .  A
C440        C441   1.419       .  A
C440        C445   1.449       .  S
C441        C442   1.417       .  A
C441        C448   1.445       .  S
C442        C443   1.421       .  A
C443        C444   1.402       .  A
C443        C446   1.450       .  S
C444        C447   1.455       .  S
C445        N452   1.158       .  T
C446        N451   1.156       .  T
C447        N449   1.157       .  T
C448        N450   1.156       .  T
C453        C454   1.422       .  A
C453        C458   1.419       .  A
C454        C455   1.413       .  A
C454        C459   1.451   1_554  S
C455        C456   1.406       .  A
C455        C462   1.449       .  S
C456        C457   1.410       .  A
C457        C458   1.408       .  A
C457        C460   1.453       .  S
C458        C461   1.451       .  S
C459        N466   1.157       .  T
C460        N465   1.157       .  T
C461        N463   1.158       .  T
C462        N464   1.157       .  T
C467        C468   1.420       .  A
C467        C472   1.404       .  A
C468        C469   1.417       .  A
C468        C473   1.447       .  S
C469        C470   1.414       .  A
C469       C1628   1.451   1_554  S
C470       C1466   1.519       .  S
C470        C471   1.436       .  A
C471        C472   1.421       .  A
C471        C474   1.452       .  S
C472        C475   1.451       .  S
C473        N480   1.155       .  T
C474        N479   1.157       .  T
C475        N477   1.158       .  T
C476       C1621   1.451       .  S
C476        N478   1.158       .  T
C481        C482   1.412       .  A
C481        C486   1.410       .  A
C482        C483   1.406       .  A
C482        C487   1.445       .  S
C483        C484   1.416       .  A
C483        C490   1.455       .  S
C484        C485   1.419       .  A
C485        C486   1.418       .  A
C485       C1640   1.450       .  S
C486        C489   1.449       .  S
C487        N494   1.154       .  T
C488       C1637   1.450   1_554  S
C488        N493   1.158       .  T
C489        N491   1.157       .  T
C490        N492   1.158       .  T
C495        C496   1.422       .  A
C495        C500   1.423       .  A
C496        C497   1.413       .  A
C496        C501   1.450       .  S
C497        C498   1.413       .  A
C497        C504   1.454       .  S
C498        C499   1.410       .  A
C499        C500   1.421       .  A
C499        C502   1.451       .  S
C500        C503   1.447       .  S
C501        N508   1.157       .  T
C502        N507   1.157       .  T
C503        N505   1.156       .  T
C504        N506   1.157       .  T
C509        C510   1.416       .  A
C509        C514   1.405       .  A
C510        C511   1.420       .  A
C510        C515   1.450       .  S
C511        C512   1.418       .  A
C511        C518   1.450       .  S
C512        C513   1.432       .  A
C513        C514   1.416       .  A
C513        C516   1.452       .  S
C514        C517   1.451       .  S
C515        N522   1.157       .  T
C516        N521   1.157       .  T
C517        N519   1.157       .  T
C518        N520   1.158       .  T
C523        C524   1.444       .  A
C523        C528   1.417       .  A
C524        C525   1.412       .  A
C524        C529   1.451       .  S
C525        C526   1.395       .  A
C525        C532   1.455       .  S
C526        C527   1.415       .  A
C527        C528   1.424       .  A
C527        C530   1.446       .  S
C528        C531   1.448       .  S
C529        N536   1.157       .  T
C530        N535   1.157       .  T
C531        N533   1.158       .  T
C532        N534   1.158       .  T
C537        C538   1.430       .  A
C537        C542   1.413       .  A
C538        C539   1.405   1_545  A
C538        C543   1.453       .  S
C539        C540   1.396       .  A
C539        C546   1.451       .  S
C540        C541   1.417       .  A
C541        C542   1.427   1_565  A
C541        C544   1.447       .  S
C542        C545   1.446       .  S
C543        N550   1.157       .  T
C544        N549   1.157       .  T
C545        N547   1.157       .  T
C546        N548   1.157       .  T
C551        C552   1.426       .  A
C551        C556   1.423       .  A
C552        C553   1.400       .  A
C552        C557   1.453       .  S
C553        C554   1.403       .  A
C553        C560   1.453       .  S
C554        C555   1.409       .  A
C555        C556   1.419       .  A
C555        C558   1.450       .  S
C556        C559   1.449       .  S
C557       N1716   1.157   1_554  T
C558        N563   1.157       .  T
C559        N561   1.157       .  T
C560        N562   1.157       .  T
N564       C1709   1.157       .  T
C565        C566   1.416       .  A
C565        C570   1.408       .  A
C566        C567   1.428       .  A
C566        C571   1.449       .  S
C567        C568   1.421       .  A
C567        C574   1.448       .  S
C568        C569   1.425       .  A
C569        C570   1.404       .  A
C569        C572   1.457       .  S
C570        C573   1.449       .  S
C571        N578   1.157       .  T
C572        N577   1.158       .  T
C573        N575   1.155       .  T
C574        N576   1.158       .  T
C579        C584   1.416       .  A
C579       C1732   1.413       .  A
C580        C581   1.399   1_556  A
C580       C1731   1.413       .  A
C580        C585   1.445   1_556  S
C581        C582   1.409       .  A
C581        C588   1.455       .  S
C582       C1735   1.413   1_554  A
C583        C584   1.424       .  A
C583       C1734   1.414       .  A
C583        C586   1.444       .  S
C584        C587   1.446       .  S
C585        N592   1.155       .  T
C586        N591   1.156       .  T
C587        N589   1.156       .  T
C588        N590   1.157       .  T
C593        C594   1.415       .  A
C593        C598   1.423       .  A
C594        C595   1.412       .  A
C594        C599   1.452       .  S
C595        C596   1.410       .  A
C595        C602   1.441       .  S
C596        C597   1.407       .  A
C597        C598   1.419       .  A
C597        C600   1.450       .  S
C598        C601   1.449       .  S
C599        N606   1.157       .  T
C600        N605   1.157       .  T
C601        N603   1.157       .  T
C602        N604   1.153       .  T
C607        C608   1.416       .  A
C607        C612   1.413       .  A
C608        C609   1.425       .  A
C608        C613   1.444       .  S
C609        C610   1.413       .  A
C609        C616   1.449       .  S
C610        C611   1.416       .  A
C611        C612   1.409       .  A
C611        C614   1.454   1_545  S
C612        C615   1.452       .  S
C613        N620   1.156       .  T
C614        N619   1.157       .  T
C615        N617   1.157       .  T
C616        N618   1.157       .  T
C621        C622   1.418       .  A
C621        C626   1.439       .  A
C622        C623   1.427       .  A
C622        C627   1.449       .  S
C623        C624   1.416       .  A
C623        C630   1.443       .  S
C624       C1388   1.509   1_554  S
C624        C625   1.401   1_554  A
C625        C626   1.418   1_556  A
C625       C1780   1.451       .  S
C626        C629   1.453       .  S
C627        N634   1.157       .  T
C628       C1777   1.451       .  S
C628        N633   1.157       .  T
C629        N631   1.158   1_565  T
C630        N632   1.155       .  T
C635        C636   1.416       .  A
C635        C640   1.419       .  A
C636        C637   1.412       .  A
C636        C641   1.453       .  S
C637        C638   1.417       .  A
C637        C644   1.452       .  S
C638        C639   1.412       .  A
C639        C640   1.409       .  A
C639        C642   1.453       .  S
C640        C643   1.449       .  S
C641        N648   1.158       .  T
C642        N647   1.158       .  T
C643        N645   1.157       .  T
C644        N646   1.157       .  T
C649        C650   1.430       .  A
C649        C654   1.417       .  A
C650        C651   1.416       .  A
C650       C1807   1.452       .  S
C651        C652   1.405       .  A
C651        C658   1.452       .  S
C652        C653   1.413       .  A
C653        C654   1.412       .  A
C653        C656   1.453       .  S
C654        C657   1.448       .  S
C655       C1802   1.452   1_554  S
C655        N662   1.158       .  T
C656        N661   1.157       .  T
C657        N659   1.156       .  T
C658        N660   1.157       .  T
C663        C664   1.403       .  A
C663        C668   1.420       .  A
C664        C665   1.404       .  A
C664        C669   1.444       .  S
C665        C666   1.415       .  A
C665        C672   1.451       .  S
C666        C667   1.409       .  A
C667        C668   1.415       .  A
C667       C1822   1.450       .  S
C668        C671   1.449       .  S
C669        N676   1.155       .  T
C670       C1819   1.450       .  S
C670        N675   1.158   1_556  T
C671        N673   1.157       .  T
C672        N674   1.156       .  T
C677        C678   1.424       .  A
C677        C682   1.415       .  A
C678        C679   1.406       .  A
C678        C683   1.451       .  S
C679        C680   1.403       .  A
C679        C686   1.450       .  S
C680        C681   1.421       .  A
C681        C682   1.424       .  A
C681        C684   1.444       .  S
C682        C685   1.449       .  S
C683        N690   1.158       .  T
C684        N689   1.155       .  T
C685        N687   1.157       .  T
C686        N688   1.158       .  T
C691        C692   1.423       .  A
C691        C696   1.407       .  A
C692        C693   1.418       .  A
C692        C697   1.451       .  S
C693        C694   1.409       .  A
C693        C700   1.447       .  S
C694        C695   1.426       .  A
C695        C696   1.420       .  A
C695       C1850   1.450       .  S
C696       C1851   1.448       .  S
C697        N704   1.157       .  T
C698       C1847   1.450       .  S
C698        N703   1.157       .  T
C699       C1848   1.445   1_554  S
C699        N701   1.156   1_545  T
C700        N702   1.156       .  T
C705        C706   1.413       .  A
C705        C710   1.406       .  A
C706        C707   1.396       .  A
C706        C711   1.456       .  S
C707       C1860   1.417       .  A
C707       C1866   1.456       .  S
C708        C709   1.420       .  A
C708       C1859   1.416   1_554  A
C709       C1862   1.413   1_554  A
C709        C712   1.450       .  S
C710       C1861   1.412       .  A
C710        C713   1.450       .  S
C711        N718   1.158       .  T
C712        N717   1.157       .  T
C713        N715   1.157       .  T
C714       C1859   1.455       .  S
C714        N716   1.158       .  T
C719        C720   1.401       .  A
C719        C724   1.412       .  A
C720        C721   1.412       .  A
C720        C725   1.454       .  S
C721        C722   1.437       .  A
C721        C728   1.453       .  S
C722        C723   1.421       .  A
C723        C724   1.417       .  A
C723        C726   1.451       .  S
C724        C727   1.451       .  S
C725        N732   1.157       .  T
C726        N731   1.158       .  T
C727        N729   1.157       .  T
C728        N730   1.158       .  T
C733        C734   1.426       .  A
C733        C738   1.423       .  A
C734        C735   1.412       .  A
C734        C739   1.452       .  S
C735        C736   1.413       .  A
C735        C742   1.455       .  S
C736        C737   1.414       .  A
C737        C738   1.419       .  A
C737        C740   1.449       .  S
C738        C741   1.451       .  S
C739        N746   1.158       .  T
C740        N745   1.157       .  T
C741       N1895   1.158       .  T
C742        N744   1.158       .  T
N743       C1893   1.158       .  T
C747        C748   1.418       .  A
C747        C752   1.413       .  A
C748        C749   1.406       .  A
C748        C753   1.454       .  S
C749        C750   1.411       .  A
C749        C756   1.452       .  S
C750        C751   1.411       .  A
C751        C752   1.416       .  A
C751        C754   1.446       .  S
C752        C755   1.449       .  S
C753        N760   1.157       .  T
C754        N759   1.156       .  T
C755        N757   1.157       .  T
C756        N758   1.157       .  T
C761        C762   1.405       .  A
C761        C766   1.419       .  A
C762        C763   1.396       .  A
C762        C767   1.454       .  S
C763        C764   1.421       .  A
C763        C770   1.456       .  S
C764        C765   1.413       .  A
C765        C766   1.425       .  A
C765        C768   1.447       .  S
C766        C769   1.448       .  S
C767        N774   1.157       .  T
C768        N773   1.157   1_565  T
C769        N771   1.157       .  T
C770        N772   1.157       .  T
C775        C776   1.414   1_565  A
C775        C780   1.397       .  A
C776        C777   1.418       .  A
C776        C781   1.445   1_545  S
C777        C778   1.413       .  A
C777        C784   1.449       .  S
C778        C779   1.434       .  A
C779        C780   1.409   1_545  A
C779        C782   1.448       .  S
C780        C783   1.452       .  S
C781        N788   1.156       .  T
C782        N787   1.156       .  T
C783        N785   1.157       .  T
C784        N786   1.157       .  T
C789        C790   1.417       .  A
C789        C794   1.419       .  A
C790        C791   1.410       .  A
C790        C795   1.452       .  S
C791        C792   1.411       .  A
C791        C798   1.449       .  S
C792        C793   1.407       .  A
C793        C794   1.415       .  A
C793        C796   1.451       .  S
C794        C797   1.448       .  S
C795        N802   1.157       .  T
C796        N801   1.157   1_655  T
C797        N799   1.157       .  T
C798        N800   1.156       .  T
C803        C804   1.418       .  A
C803        C808   1.420       .  A
C804        C805   1.418       .  A
C804        C809   1.449       .  S
C805       C1958   1.413   1_554  A
C805        C812   1.450       .  S
C806        C807   1.416       .  A
C806       C1957   1.413       .  A
C807       C1960   1.405       .  A
C807        C810   1.456       .  S
C808       C1959   1.405   1_554  A
C808       C1963   1.455       .  S
C809        N816   1.157       .  T
C810        N815   1.158       .  T
C811       C1960   1.455       .  S
C811        N813   1.158       .  T
C812        N814   1.157       .  T
C817        C818   1.430       .  A
C817       C1974   1.417       .  A
C818        C819   1.417       .  A
C818        C823   1.451       .  S
C819       C1972   1.405       .  A
C819        C826   1.451       .  S
C820        C821   1.417       .  A
C820       C1971   1.408   1_554  A
C821        C822   1.409       .  A
C821        C824   1.450       .  S
C822       C1969   1.409   1_554  A
C822        C825   1.449       .  S
C823        N830   1.157       .  T
C824        N829   1.156       .  T
C825        N827   1.156       .  T
C826        N828   1.157   1_455  T
C831        C832   1.418       .  A
C831        C836   1.411       .  A
C832        C833   1.408       .  A
C832        C837   1.453       .  S
C833        C834   1.418       .  A
C833        C840   1.453       .  S
C834        C835   1.423       .  A
C835        C836   1.402       .  A
C835        C838   1.455       .  S
C836        C839   1.455       .  S
C837        N844   1.157       .  T
C838        N843   1.157       .  T
C839        N841   1.158       .  T
C840        N842   1.158       .  T
C845        C846   1.407       .  A
C845        C850   1.426       .  A
C846        C847   1.417       .  A
C846        C851   1.454       .  S
C847        C848   1.434       .  A
C847        C854   1.450       .  S
C848       C1256   1.518   1_554  S
C848        C849   1.410   1_554  A
C849        C850   1.423   1_556  A
C849       C2004   1.450       .  S
C850        C853   1.448   1_554  S
C851        N858   1.158       .  T
C852       C2001   1.450       .  S
C852        N857   1.157       .  T
C853        N855   1.156       .  T
C854        N856   1.157       .  T
C859        C860   1.404       .  A
C859        C864   1.411       .  A
C860        C861   1.417       .  A
C860        C865   1.451       .  S
C861        C862   1.432       .  A
C861        C868   1.451       .  S
C862        C863   1.422       .  A
C863        C864   1.412       .  A
C863        C866   1.452       .  S
C864        C867   1.452       .  S
C865        N872   1.157       .  T
C866        N871   1.158       .  T
C867        N869   1.157   1_554  T
C868        N870   1.157       .  T
C873        C874   1.417       .  A
C873        C878   1.415       .  A
C874        C875   1.409       .  A
C874        C879   1.451       .  S
C875        C876   1.409       .  A
C875        C882   1.453       .  S
C876        C877   1.413       .  A
C877        C878   1.419       .  A
C877        C880   1.449       .  S
C878        C881   1.450       .  S
C879        N886   1.158       .  T
C880        N885   1.158       .  T
C881        N883   1.157       .  T
C882        N884   1.157       .  T
C887        C888   1.435       .  A
C887        C892   1.404       .  A
C888        C889   1.417       .  A
C888        C893   1.450       .  S
C889        C890   1.404       .  A
C889        C896   1.454       .  S
C890        C891   1.432       .  A
C891        C892   1.417       .  A
C891        C894   1.448       .  S
C892        C895   1.453       .  S
C893        N900   1.157       .  T
C894        N899   1.156       .  T
C895        N897   1.157       .  T
C896        N898   1.157       .  T
C901        C902   1.412       .  A
C901        C906   1.407       .  A
C902        C903   1.404       .  A
C902        C907   1.452       .  S
C903        C904   1.413       .  A
C903        C910   1.453       .  S
C904        C905   1.416       .  A
C905        C906   1.411       .  A
C905        C908   1.450       .  S
C906        C909   1.450       .  S
C907        N914   1.157       .  T
C908        N913   1.157       .  T
C909        N911   1.157       .  T
C910        N912   1.158       .  T
C915        C916   1.415       .  A
C915        C920   1.416       .  A
C916        C917   1.429       .  A
C916        C921   1.449       .  S
C917        C918   1.419       .  A
C917        C924   1.448       .  S
C918        C919   1.414       .  A
C919        C920   1.411       .  A
C919        C922   1.453       .  S
C920        C923   1.449       .  S
C921        N928   1.157       .  T
C922        N927   1.157       .  T
C923       N2077   1.155       .  T
C924        N926   1.158       .  T
N925       C2075   1.155   1_554  T
C929        C930   1.410       .  A
C929        C934   1.428       .  A
C930        C931   1.415   1_655  A
C930        C935   1.453   1_655  S
C931        C932   1.430       .  A
C931        C938   1.453       .  S
C932        C933   1.411   1_455  A
C933        C934   1.419       .  A
C933        C936   1.451       .  S
C934        C937   1.451       .  S
C935        N942   1.158       .  T
C936        N941   1.158       .  T
C937        N939   1.157       .  T
C938        N940   1.157       .  T
C943        C944   1.418       .  A
C943        C948   1.407       .  A
C944        C945   1.406       .  A
C944        C949   1.452       .  S
C945        C946   1.414       .  A
C945        C952   1.454       .  S
C946        C947   1.421       .  A
C947        C948   1.407       .  A
C947        C950   1.452       .  S
C948        C951   1.453       .  S
C949        N956   1.158       .  T
C950        N955   1.157       .  T
C951        N953   1.157       .  T
C952        N954   1.158       .  T
C957        C958   1.428       .  A
C957        C962   1.412       .  A
C958        C959   1.415       .  A
C958        C963   1.451       .  S
C959        C960   1.406       .  A
C959        C966   1.451       .  S
C960        C961   1.417       .  A
C961        C962   1.408       .  A
C961        C964   1.452       .  S
C962        C965   1.447       .  S
C963        N970   1.157       .  T
C964        N969   1.157       .  T
C965        N967   1.155       .  T
C966        N968   1.157       .  T
C971        C972   1.408       .  A
C971        C976   1.417       .  A
C972        C973   1.411       .  A
C972        C977   1.452       .  S
C973        C974   1.420       .  A
C973        C980   1.450       .  S
C974        C975   1.404       .  A
C975        C976   1.408       .  A
C975        C978   1.451       .  S
C976        C979   1.448       .  S
C977        N984   1.158       .  T
C978        N983   1.157       .  T
C979        N981   1.156       .  T
C980        N982   1.157       .  T
C985        C986   1.432       .  A
C985        C990   1.424       .  A
C986        C987   1.417       .  A
C986        C991   1.451       .  S
C987        C988   1.404       .  A
C987        C994   1.451       .  S
C988        C989   1.411       .  A
C989        C990   1.413       .  A
C989        C992   1.453       .  S
C990        C993   1.452       .  S
C991       N2150   1.157       .  T
C992        N997   1.157       .  T
C993        N995   1.158       .  T
C994        N996   1.157       .  T
N998       C2143   1.157   1_554  T
C999       C1000   1.416       .  A
C999       C1004   1.417       .  A
C1000      C1001   1.433       .  A
C1000      C1005   1.446       .  S
C1001      C1002   1.421       .  A
C1001      C1008   1.446       .  S
C1002      C1003   1.412       .  A
C1003      C1004   1.395       .  A
C1003      C1006   1.455       .  S
C1004      C2159   1.456       .  S
C1005      N1012   1.157       .  T
C1006      N1011   1.157       .  T
C1007      C2156   1.455   1_554  S
C1007      N1009   1.157       .  T
C1008      N1010   1.157       .  T
C1013      C1014   1.427       .  A
C1013      C1018   1.427       .  A
C1014      C1015   1.411       .  A
C1014      C1019   1.453       .  S
C1015      C1016   1.408       .  A
C1015      C1022   1.450       .  S
C1016      C1017   1.410       .  A
C1017      C1018   1.419       .  A
C1017      C1020   1.448       .  S
C1018      C1021   1.451       .  S
C1019      N1026   1.158       .  T
C1020      N1025   1.157       .  T
C1021      N1023   1.158       .  T
C1022      N1024   1.156   1_455  T
C1027      C1032   1.417       .  A
C1027      C2180   1.418   1_554  A
C1028      C1029   1.423       .  A
C1028      C2179   1.417       .  A
C1028      C1033   1.449       .  S
C1029      C1030   1.418       .  A
C1029      C1036   1.450       .  S
C1030      C2183   1.418       .  A
C1031      C1032   1.402   1_556  A
C1031      C2182   1.418       .  A
C1031      C1034   1.457   1_556  S
C1032      C1035   1.450       .  S
C1033      N1040   1.158       .  T
C1034      N1039   1.158       .  T
C1035      N1037   1.154       .  T
C1036      N1038   1.157       .  T
C1041      C1046   1.409       .  A
C1041      C2194   1.410       .  A
C1042      C1043   1.412   1_556  A
C1042      C2193   1.410       .  A
C1042      C2199   1.453       .  S
C1043      C1044   1.422       .  A
C1043      C1050   1.452       .  S
C1044      C1045   1.423       .  A
C1045      C2198   1.414       .  A
C1045      C1048   1.452       .  S
C1046      C2197   1.414       .  A
C1046      C1049   1.451       .  S
C1047      C2194   1.453       .  S
C1047      N1054   1.157       .  T
C1048      N1053   1.158       .  T
C1049      N1051   1.157   1_655  T
C1050      N1052   1.158       .  T
C1055      C1056   1.409       .  A
C1055      C1060   1.410       .  A
C1056      C1057   1.422       .  A
C1056      C1061   1.443       .  S
C1057      C1058   1.417       .  A
C1057      C1064   1.448       .  S
C1058      C1059   1.424       .  A
C1059      C1060   1.415       .  A
C1059      C1062   1.450       .  S
C1060      C1063   1.452       .  S
C1061      N1068   1.156       .  T
C1062      N1067   1.158       .  T
C1063      N1065   1.157   1_545  T
C1064      N1066   1.157       .  T
C1069      C1070   1.418       .  A
C1069      C1074   1.405       .  A
C1070      C1071   1.416   1_455  A
C1070      C1075   1.450       .  S
C1071      C1072   1.408       .  A
C1071      C1078   1.444       .  S
C1072      C1073   1.430   1_655  A
C1073      C1074   1.418       .  A
C1073      C1076   1.452       .  S
C1074      C1077   1.450       .  S
C1075      N1082   1.156       .  T
C1076      N1081   1.158   1_554  T
C1077      N1079   1.157       .  T
C1078      N1080   1.155       .  T
C1083      C1084   1.432       .  A
C1083      C1088   1.412       .  A
C1084      C1085   1.412       .  A
C1084      C1089   1.449       .  S
C1085      C1086   1.398       .  A
C1085      C1092   1.453       .  S
C1086      C1087   1.411       .  A
C1087      C1088   1.415       .  A
C1087      C1090   1.442       .  S
C1088      C1091   1.450       .  S
C1089      N1096   1.156       .  T
C1090      N1095   1.154       .  T
C1091      N1093   1.157       .  T
C1092      N1094   1.158       .  T
C1097      C1098   1.413       .  A
C1097      C1102   1.416       .  A
C1098      C1099   1.406       .  A
C1098      C1103   1.454       .  S
C1099      C1100   1.413       .  A
C1099      C1106   1.451       .  S
C1100      C1101   1.409       .  A
C1101      C1102   1.407       .  A
C1101      C1104   1.452       .  S
C1102      C1105   1.452       .  S
C1103      N1110   1.157       .  T
C1104      N1109   1.157       .  T
C1105      N1107   1.157       .  T
C1106      N1108   1.157       .  T
C1111      C1112   1.406       .  A
C1111      C1116   1.416       .  A
C1112      C1113   1.420       .  A
C1112      C1117   1.451       .  S
C1113      C1114   1.432       .  A
C1113      C1120   1.451       .  S
C1114      C1115   1.419       .  A
C1115      C1116   1.414       .  A
C1115      C1118   1.452       .  S
C1116      C2271   1.451       .  S
C1117      N1124   1.157       .  T
C1118      N1123   1.158       .  T
C1119      C2268   1.451       .  S
C1119      N1121   1.156       .  T
C1120      N1122   1.158       .  T
C1125      C1126   1.406       .  A
C1125      C1130   1.418       .  A
C1126      C1127   1.410       .  A
C1126      C1131   1.452       .  S
C1127      C1128   1.420       .  A
C1127      C1134   1.451       .  S
C1128      C1129   1.411       .  A
C1129      C1130   1.411       .  A
C1129      C1132   1.452       .  S
C1130      C1133   1.451       .  S
C1131      N2290   1.157   1_554  T
C1132      N1137   1.158       .  T
C1133      N1135   1.157       .  T
C1134      N1136   1.157       .  T
N1138      C2283   1.157       .  T
C1139      C1140   1.421       .  A
C1139      C1144   1.428       .  A
C1140      C1141   1.417       .  A
C1140      C1145   1.451       .  S
C1141      C1142   1.416       .  A
C1141      C1148   1.452       .  S
C1142      C1143   1.408       .  A
C1143      C1144   1.421       .  A
C1143      C1146   1.449       .  S
C1144      C1147   1.450       .  S
C1145      N1152   1.157       .  T
C1146      N1151   1.157       .  T
C1147      N1149   1.157       .  T
C1148      N1150   1.157       .  T
O1153      C1168   1.251       .  A
O1153     Al1161   1.869       .  S
C1154      O1164   1.277       .  A
C1154      O1155   1.284       .  A
C1154      C2249   1.479       .  S
O1155     Al1157   1.943       .  S
O1156      C1158   1.254       .  A
O1156     Al1157   1.864       .  S
Al1157     O1165   1.913       .  S
Al1157     O1167   1.951       .  S
Al1157     O1166   1.773       .  S
C1158      O1171   1.275       .  A
C1158      C2235   1.505       .  S
O1159      C1169   1.249       .  A
O1159     Al1161   1.908       .  S
O1160      C1173   1.276       .  A
O1160     Al1170   1.864       .  S
Al1161     O1174   1.976       .  S
Al1161     O1171   1.956       .  S
Al1161     O1166   1.763       .  S
O1162      C1169   1.248       .  A
O1162     Al1170   1.915       .  S
O1163      C1172   1.250       .  A
O1163     Al1170   1.911       .  S
O1164     Al1170   1.879       .  S
O1165      C1172   1.255       .  A
O1166     Al1170   1.776       .  S
O1167      C1168   1.268       .  A
C1168      C2221   1.496       .  S
C1169      C2291   1.520       .  S
C1172      C2266   1.517       .  S
C1173      O1174   1.293       .  A
C1173      C2280   1.484       .  S
O1175      C1190   1.264       .  A
O1175     Al1183   1.897   1_655  S
C1176      O1186   1.266       .  A
C1176      O1177   1.263       .  A
C1176      C2168   1.498       .  S
O1177     Al1179   1.896       .  S
O1178      C1180   1.255       .  A
O1178     Al1179   1.920       .  S
Al1179     O1187   1.882   1_455  S
Al1179     O1189   1.921   1_455  S
Al1179     O1188   1.803   1_455  S
C1180      O1193   1.249       .  A
C1180      C2182   1.499       .  S
O1181      C1191   1.265       .  A
O1181     Al1183   1.905       .  S
O1182      C1195   1.268       .  A
O1182     Al1192   1.960       .  S
Al1183     O1196   1.854   1_455  S
Al1183     O1193   1.866       .  S
Al1183     O1188   1.781   1_455  S
O1184      C1191   1.271       .  A
O1184     Al1192   1.943   1_455  S
O1185      C1194   1.267       .  A
O1185     Al1192   1.953       .  S
O1186     Al1192   1.924   1_455  S
O1187      C1194   1.253       .  A
O1188     Al1192   1.803       .  S
O1189      C1190   1.265       .  A
C1190      C2193   1.485       .  S
C1191      C2238   1.486       .  S
C1194      C2210   1.511       .  S
C1195      O1196   1.251       .  A
C1195      C2154   1.496       .  S
O1197      C1212   1.244   1_554  A
C1198      O1208   1.274       .  A
C1198      O1199   1.294       .  A
C1198      C2123   1.482       .  S
O1199     Al1201   1.990       .  S
O1200      C1202   1.251       .  A
O1200     Al1201   1.859       .  S
Al1201     O1210   1.767       .  S
C1202      O1215   1.274       .  A
C1202      C2224   1.511       .  S
O1203      C1213   1.254       .  A
O1203     Al1205   1.909       .  S
O1204      C1217   1.274       .  A
Al1205     O1218   1.954       .  S
Al1205     O1215   1.966       .  S
Al1205     O1210   1.761       .  S
O1206      C1213   1.250       .  A
O1206     Al1214   1.906       .  S
O1207      C1216   1.248   1_554  A
O1208     Al1214   1.852       .  S
O1209      C1216   1.252       .  A
O1210     Al1214   1.777       .  S
O1211      C1212   1.275       .  A
C1212      C2151   1.494       .  S
C1213      C2109   1.501       .  S
C1216      C2137   1.516       .  S
C1217      C2098   1.486       .  S
O1219      C1234   1.243       .  A
O1219     Al1227   1.834       .  S
C1220      O1230   1.272       .  A
C1220      O1221   1.293       .  A
C1220      C2140   1.485       .  S
O1221     Al1223   1.995       .  S
O1222      C1224   1.250       .  A
O1222     Al1223   1.867       .  S
Al1223     O1231   1.904       .  S
Al1223     O1233   1.974       .  S
Al1223     O1232   1.755       .  S
C1224      O1237   1.268       .  A
C1224      C2081   1.508       .  S
O1225      C1235   1.240       .  A
O1225     Al1227   1.864       .  S
O1226      C1239   1.270       .  A
O1226     Al1236   1.855       .  S
Al1227     O1240   1.981       .  S
Al1227     O1237   1.941       .  S
Al1227     O1232   1.760       .  S
O1228      C1235   1.257       .  A
O1228     Al1236   1.951       .  S
O1229      C1238   1.258       .  A
O1229     Al1236   1.956       .  S
O1230     Al1236   1.860       .  S
O1231      C1238   1.251       .  A
O1232     Al1236   1.790       .  S
O1233      C1234   1.276       .  A
C1234      C2042   1.504       .  S
C1235      C2126   1.479       .  S
C1238      C2070   1.506       .  S
C1239      O1240   1.289       .  A
C1239      C2053   1.471       .  S
O1241     Al1249   1.844       .  S
C1242      O1252   1.273       .  A
C1242      O1243   1.298       .  A
C1242      C2294   1.501       .  S
O1243     Al1245   2.019       .  S
O1244      C1246   1.248       .  A
O1244     Al1245   1.852       .  S
Al1245     O1253   1.890       .  S
Al1245     O1255   1.987       .  S
Al1245     O1254   1.754       .  S
C1246      O1259   1.271       .  A
C1246      C2084   1.509       .  S
O1247      C1257   1.243       .  A
O1247     Al1249   1.875       .  S
O1248      C1261   1.272       .  A
Al1249     O1262   1.993       .  S
O1250      C1257   1.255       .  A
O1251      C1260   1.255       .  A
O1251     Al1258   1.941       .  S
O1252     Al1258   1.867       .  S
O1253      C1260   1.246       .  A
O1254     Al1258   1.788       .  S
O1255      C1256   1.277       .  A
C1257      C2277   1.480       .  S
C1260      C2025   1.495       .  S
C1261      O1262   1.292       .  A
C1261      C2011   1.485       .  S
O1263      C1278   1.252       .  A
O1263     Al1271   1.880   1_455  S
C1264      O1274   1.271       .  A
C1264      O1265   1.291       .  A
C1264      C1944   1.483       .  S
O1265     Al1267   1.996   1_655  S
O1266      C1268   1.249       .  A
O1266     Al1267   1.845   1_655  S
Al1267     O1275   1.888       .  S
Al1267     O1277   1.948       .  S
Al1267     O1276   1.763   1_455  S
C1268      O1281   1.278       .  A
C1268      C2039   1.509       .  S
O1269      C1279   1.251       .  A
O1269     Al1271   1.921       .  S
O1270      C1283   1.273       .  A
O1270     Al1280   1.864   1_455  S
Al1271     O1284   1.996   1_655  S
Al1271     O1281   1.969       .  S
Al1271     O1276   1.762       .  S
O1272      C1279   1.245       .  A
O1272     Al1280   1.872       .  S
O1273      C1282   1.248       .  A
O1273     Al1280   1.893   1_455  S
O1274     Al1280   1.866       .  S
O1275      C1282   1.245       .  A
O1276     Al1280   1.775       .  S
O1277      C1278   1.269       .  A
C1278      C1997   1.512       .  S
C1279      C1955   1.499       .  S
C1282      C1983   1.489       .  S
C1283      O1284   1.294       .  A
C1283      C1972   1.487       .  S
O1285      C1300   1.261       .  A
O1285     Al1293   1.905       .  S
C1286      O1296   1.266       .  A
C1286      O1287   1.265       .  A
C1286      C1888   1.504       .  S
O1287     Al1289   1.905       .  S
O1288      C1290   1.254       .  A
O1288     Al1289   1.889       .  S
Al1289     O1297   1.877       .  S
Al1289     O1299   1.913       .  S
Al1289     O1298   1.788       .  S
C1290      O1303   1.259       .  A
C1290      C1902   1.482       .  S
O1291      C1301   1.266       .  A
O1291     Al1293   1.918       .  S
O1292      C1305   1.267       .  A
O1292     Al1302   1.926       .  S
Al1293     O1306   1.888       .  S
Al1293     O1303   1.917       .  S
Al1293     O1298   1.791       .  S
O1294      C1301   1.262       .  A
O1294     Al1302   1.917       .  S
O1295      C1304   1.262       .  A
O1295     Al1302   1.930       .  S
O1296     Al1302   1.920       .  S
O1297      C1304   1.251       .  A
O1298     Al1302   1.800       .  S
O1299      C1300   1.261       .  A
C1300      C2028   1.487       .  S
C1301      C1927   1.485       .  S
C1304      C2014   1.516       .  S
C1305      O1306   1.262       .  A
C1305      C1913   1.485       .  S
O1307      C1322   1.253       .  A
O1307     Al1315   1.859       .  S
C1308      O1318   1.268       .  A
C1308      O1309   1.285       .  A
C1308      C1986   1.489       .  S
O1309     Al1311   1.970       .  S
O1310      C1312   1.246       .  A
O1310     Al1311   1.815       .  S
Al1311     O1319   1.911       .  S
Al1311     O1321   1.973       .  S
Al1311     O1320   1.764   1_565  S
C1312      O1325   1.272   1_565  A
C1312      C1916   1.488       .  S
O1313      C1323   1.253       .  A
O1313     Al1315   1.916       .  S
O1314      C1327   1.271       .  A
O1314     Al1324   1.846       .  S
Al1315     O1328   1.978       .  S
Al1315     O1325   1.966       .  S
Al1315     O1320   1.773       .  S
O1316      C1323   1.247       .  A
O1316     Al1324   1.904       .  S
O1317      C1326   1.252       .  A
O1317     Al1324   1.918   1_565  S
O1318     Al1324   1.850   1_565  S
O1319      C1326   1.258       .  A
O1320     Al1324   1.771       .  S
O1321      C1322   1.274   1_565  A
C1322      C1843   1.509       .  S
C1323      C1871   1.481       .  S
C1326      C1969   1.502       .  S
C1327      O1328   1.288       .  A
C1327      C1857   1.468       .  S
O1329      C1344   1.250       .  A
O1329     Al1337   1.847       .  S
C1330      C1818   1.489       .  S
O1331     Al1333   1.984       .  S
O1332      C1334   1.254       .  A
Al1333     O1341   1.919       .  S
Al1333     O1343   1.969       .  S
Al1333     O1342   1.766       .  S
C1334      O1347   1.271   1_554  A
C1334      C1846   1.506   1_554  S
O1335      C1345   1.252       .  A
O1336      C1349   1.279       .  A
O1336     Al1346   1.883       .  S
Al1337     O1350   1.966       .  S
Al1337     O1342   1.767       .  S
O1338      C1345   1.248       .  A
O1339      C1348   1.246       .  A
O1339     Al1346   1.915       .  S
O1340     Al1346   1.852       .  S
O1341      C1348   1.252       .  A
O1342     Al1346   1.777       .  S
O1343      C1344   1.275       .  A
C1344      C1930   1.510       .  S
C1345      C1801   1.506       .  S
C1348      C1832   1.496       .  S
C1349      O1350   1.290       .  A
C1349      C1787   1.500       .  S
O1351      C1366   1.250       .  A
O1351     Al1359   1.844   1_545  S
C1352      O1362   1.273       .  A
C1352      O1353   1.289       .  A
C1352      C1734   1.495       .  S
O1353     Al1355   1.996   1_565  S
O1354      C1356   1.249       .  A
O1354     Al1355   1.854   1_565  S
Al1355     O1363   1.909       .  S
Al1355     O1365   1.963       .  S
Al1355     O1364   1.771   1_545  S
C1356      O1369   1.278       .  A
C1356      C1773   1.534       .  S
O1357      C1367   1.256       .  A
O1357     Al1359   1.927       .  S
O1358      C1371   1.274       .  A
O1358     Al1368   1.873   1_545  S
Al1359     O1372   2.011       .  S
Al1359     O1369   1.992       .  S
Al1359     O1364   1.766       .  S
O1360      C1367   1.250       .  A
O1360     Al1368   1.908       .  S
O1361      C1370   1.250       .  A
O1361     Al1368   1.908   1_545  S
O1362     Al1368   1.857       .  S
O1363      C1370   1.251       .  A
O1364     Al1368   1.775       .  S
O1365      C1366   1.271       .  A
C1366      C1762   1.496       .  S
C1367      C1745   1.504       .  S
C1370      C2196   1.502       .  S
C1371      O1372   1.294   1_545  A
C1371      C2207   1.498       .  S
O1373     Al1381   1.884       .  S
C1374      O1384   1.264       .  A
C1374      O1375   1.281       .  A
C1374      C1899   1.491       .  S
O1375     Al1377   1.972       .  S
O1376      C1378   1.252       .  A
O1376     Al1377   1.865       .  S
Al1377     O1385   1.930       .  S
Al1377     O1387   1.967       .  S
Al1377     O1386   1.783       .  S
C1378      O1391   1.270       .  A
C1378      C1692   1.488       .  S
O1379      C1389   1.255       .  A
O1379     Al1381   1.919       .  S
O1380      C1393   1.263       .  A
Al1381     O1394   1.966       .  S
O1382      C1389   1.251       .  A
O1383      C1392   1.258       .  A
O1383     Al1390   1.920       .  S
O1384     Al1390   1.862       .  S
O1385      C1392   1.257       .  A
O1386     Al1390   1.779       .  S
O1387      C1388   1.272       .  A
C1389      C1885   1.516       .  S
C1392      C1717   1.498       .  S
C1393      O1394   1.281       .  A
C1393      C1703   1.503       .  S
O1395      C1410   1.243       .  A
O1395     Al1403   1.831       .  S
C1396      O1406   1.265       .  A
C1396      O1397   1.287       .  A
C1396      C1804   1.484       .  S
O1397     Al1399   1.994       .  S
O1398      C1400   1.241       .  A
O1398     Al1399   1.805       .  S
Al1399     O1407   1.870       .  S
Al1399     O1409   1.983       .  S
Al1399     O1408   1.753       .  S
C1400      O1413   1.280       .  A
C1400      C1689   1.504       .  S
O1401      C1411   1.255       .  A
O1401     Al1403   1.900       .  S
O1402      C1415   1.265       .  A
O1402     Al1412   1.842       .  S
Al1403     O1416   1.996       .  S
Al1403     O1413   2.011       .  S
Al1403     O1408   1.765       .  S
O1404      C1411   1.257       .  A
O1404     Al1412   1.912       .  S
O1405      C1414   1.259       .  A
O1405     Al1412   1.938       .  S
O1406     Al1412   1.853       .  S
O1407      C1414   1.247       .  A
O1408     Al1412   1.783       .  S
O1409      C1410   1.272       .  A
C1410      C1759   1.490       .  S
C1411      C1790   1.487       .  S
C1414      C2095   1.478       .  S
C1415      O1416   1.290       .  A
C1415      C2112   1.486       .  S
O1417      C1432   1.242       .  A
O1417     Al1425   1.823       .  S
C1418      O1428   1.270       .  A
C1418      O1419   1.300       .  A
C1418      C1829   1.514       .  S
O1419     Al1421   2.031       .  S
O1420      C1422   1.252       .  A
O1420     Al1421   1.865       .  S
Al1421     O1429   1.912       .  S
Al1421     O1431   2.008       .  S
Al1421     O1430   1.759       .  S
C1422      O1435   1.269       .  A
C1422      C1664   1.514       .  S
O1423      C1433   1.243       .  A
O1423     Al1425   1.879       .  S
O1424      C1437   1.267       .  A
O1424     Al1434   1.851       .  S
Al1425     O1438   2.004       .  S
Al1425     O1435   1.952       .  S
Al1425     O1430   1.768       .  S
O1426      C1433   1.257       .  A
O1426     Al1434   1.939       .  S
O1427      C1436   1.256       .  A
O1427     Al1434   1.932       .  S
O1428     Al1434   1.845       .  S
O1429      C1436   1.251       .  A
O1430     Al1434   1.781       .  S
O1431      C1432   1.282       .  A
C1432      C1675   1.527       .  S
C1433      C1815   1.482       .  S
C1436      C1647   1.514       .  S
C1437      O1438   1.292       .  A
C1437      C1633   1.483       .  S
O1439      C1454   1.252       .  A
O1439     Al1447   1.865       .  S
C1440      O1450   1.264       .  A
C1440      O1441   1.280       .  A
C1440      C2179   1.500       .  S
O1441     Al1443   1.982       .  S
O1442      C1444   1.246       .  A
O1442     Al1443   1.829       .  S
Al1443     O1451   1.879       .  S
Al1443     O1453   1.961       .  S
Al1443     O1452   1.777       .  S
C1444      O1457   1.278       .  A
C1444      C1619   1.500       .  S
O1445      C1455   1.260       .  A
O1445     Al1447   1.915       .  S
O1446      C1459   1.257       .  A
O1446     Al1456   1.848       .  S
Al1447     O1460   1.995       .  S
Al1447     O1457   1.991       .  S
Al1447     O1452   1.777       .  S
O1448      C1455   1.259       .  A
O1448     Al1456   1.916       .  S
O1449      C1458   1.255       .  A
O1449     Al1456   1.892       .  S
O1450     Al1456   1.858       .  S
O1451      C1458   1.249       .  A
O1452     Al1456   1.772       .  S
O1453      C1454   1.271       .  A
C1454      C1661   1.494       .  S
C1455      C2165   1.517       .  S
C1458      C1860   1.480       .  S
C1459      O1460   1.284       .  A
C1459      C1874   1.511       .  S
O1461      C1476   1.247       .  A
O1461     Al1469   1.848       .  S
C1462      O1472   1.264       .  A
C1462      O1463   1.286       .  A
C1462      C2263   1.496       .  S
O1463     Al1465   1.991       .  S
O1464     Al1465   1.844       .  S
Al1465     O1473   1.889       .  S
C1466      O1479   1.275   1_554  A
O1467      C1477   1.253       .  A
O1467     Al1469   1.896       .  S
O1468      C1481   1.270       .  A
O1468     Al1478   1.864       .  S
Al1469     O1482   1.979       .  S
Al1469     O1479   1.975       .  S
Al1469     O1474   1.779       .  S
O1470      C1477   1.250       .  A
O1470     Al1478   1.887       .  S
O1471      C1480   1.254       .  A
O1473      C1480   1.249       .  A
O1474     Al1478   1.778       .  S
O1475      C1476   1.270       .  A
C1476      C1678   1.489       .  S
C1477      C2252   1.470       .  S
C1480      C1605   1.500       .  S
C1481      O1482   1.281       .  A
C1481      C1591   1.488       .  S
O1483      C1498   1.281       .  A
O1483     Al1491   1.967       .  S
C1484      O1494   1.290       .  A
C1484      O1485   1.264       .  A
C1484      C1720   1.514       .  S
O1485     Al1487   1.845       .  S
O1486      C1488   1.246       .  A
O1486     Al1487   1.878       .  S
Al1487     O1495   1.879       .  S
Al1487     O1497   1.865       .  S
Al1487     O1496   1.773       .  S
C1488      O1501   1.253       .  A
C1488      C1706   1.472       .  S
O1489      C1499   1.267       .  A
O1489     Al1491   1.948       .  S
O1490      C1503   1.277       .  A
O1490     Al1500   1.988       .  S
Al1491     O1504   1.841       .  S
Al1491     O1501   1.921       .  S
Al1491     O1496   1.775       .  S
O1492      C1499   1.250       .  A
O1492     Al1500   1.861       .  S
O1493      C1502   1.255       .  A
O1493     Al1500   1.928       .  S
O1494     Al1500   2.009       .  S
O1495      C1502   1.247       .  A
O1496     Al1500   1.785       .  S
O1497      C1498   1.269       .  A
C1498      C1608   1.479       .  S
C1499      C1563   1.488       .  S
C1502      C1594   1.498       .  S
C1503      O1504   1.251       .  A
C1503      C1580   1.513       .  S
O1505      C1520   1.281       .  A
O1505     Al1513   1.982       .  S
C1506      O1516   1.284       .  A
C1506      O1507   1.263       .  A
C1506      C2067   1.505       .  S
O1508      C1510   1.257       .  A
O1508     Al1509   1.907       .  S
Al1509     O1517   1.926       .  S
Al1509     O1519   1.876       .  S
Al1509     O1518   1.789       .  S
C1510      O1523   1.256       .  A
C1510      C2056   1.481       .  S
O1511      C1521   1.274       .  A
O1511     Al1513   1.981       .  S
O1512      C1525   1.273       .  A
Al1513     O1526   1.858       .  S
Al1513     O1523   1.890       .  S
Al1513     O1518   1.775       .  S
O1514      C1521   1.252       .  A
O1515      C1524   1.253       .  A
O1515     Al1522   1.896       .  S
O1516     Al1522   1.998   1_556  S
O1519      C1520   1.267       .  A
C1520      C1650   1.497       .  S
C1524      C1636   1.498   1_554  S
C1525      O1526   1.250       .  A
C1525      C1577   1.494       .  S
O1527      C1542   1.288       .  A
O1527     Al1535   1.984       .  S
C1528      O1538   1.285       .  A
C1528      O1529   1.270       .  A
C1528      C1748   1.492       .  S
O1529     Al1531   1.881       .  S
O1530      C1532   1.252       .  A
O1530     Al1531   1.898       .  S
Al1531     O1539   1.925       .  S
Al1531     O1541   1.860       .  S
Al1531     O1540   1.783       .  S
C1532      O1545   1.257       .  A
C1532      C1731   1.496       .  S
O1533      C1543   1.275       .  A
O1533     Al1535   1.980       .  S
O1534      C1547   1.267       .  A
O1534     Al1544   1.951       .  S
Al1535     O1548   1.873       .  S
Al1535     O1545   1.932       .  S
Al1535     O1540   1.784       .  S
O1536      C1543   1.252       .  A
O1536     Al1544   1.843       .  S
O1537      C1546   1.251       .  A
O1537     Al1544   1.907       .  S
O1538     Al1544   1.986       .  S
O1539      C1546   1.254       .  A
O1540     Al1544   1.764       .  S
O1541      C1542   1.269       .  A
C1542      C1958   1.493       .  S
C1543      C1566   1.507       .  S
C1546      C1941   1.498       .  S
C1547      O1548   1.252       .  A
C1547      C1549   1.497       .  S
C1549      C1550   1.415       .  A
C1549      C1554   1.412       .  A
C1550      C1551   1.426       .  A
C1550      C1555   1.449       .  S
C1551      C1552   1.415       .  A
C1552      C1553   1.420       .  A
C1553      C1554   1.412       .  A
C1553      C1556   1.454       .  S
C1554      C1557   1.452       .  S
C1555      N1562   1.157       .  T
C1556      N1561   1.157       .  T
C1557      N1559   1.157       .  T
C1558      N1560   1.157       .  T
C1563      C1564   1.409       .  A
C1563      C1568   1.416       .  A
C1564      C1565   1.407       .  A
C1564      C1569   1.452       .  S
C1565      C1566   1.424       .  A
C1565      C1572   1.456       .  S
C1566      C1567   1.415       .  A
C1567      C1568   1.425       .  A
C1567      C1570   1.447       .  S
C1568      C1571   1.449       .  S
C1569      N1576   1.157       .  T
C1570      N1575   1.157       .  T
C1571      N1573   1.157       .  T
C1572      N1574   1.158       .  T
C1577      C1578   1.416       .  A
C1577      C1582   1.411       .  A
C1578      C1579   1.426       .  A
C1578      C1583   1.449       .  S
C1579      C1580   1.415       .  A
C1579      C1586   1.444       .  S
C1580      C1581   1.426       .  A
C1581      C1582   1.411       .  A
C1581      C1584   1.456       .  S
C1582      C1585   1.452       .  S
C1583      N1590   1.157       .  T
C1584      N1589   1.158       .  T
C1585      N1587   1.157       .  T
C1586      N1588   1.156       .  T
C1591      C1592   1.409       .  A
C1591      C1596   1.408       .  A
C1592      C1593   1.420       .  A
C1592      C1597   1.449       .  S
C1593      C1594   1.418       .  A
C1593      C1600   1.445       .  S
C1594      C1595   1.420       .  A
C1595      C1596   1.402       .  A
C1595      C1598   1.450       .  S
C1596      C1599   1.455       .  S
C1597      N1604   1.158       .  T
C1598      N1603   1.156       .  T
C1599      N1601   1.157       .  T
C1600      N1602   1.156       .  T
C1605      C1606   1.422       .  A
C1605      C1610   1.420       .  A
C1606      C1607   1.413       .  A
C1606      C1611   1.451       .  S
C1607      C1608   1.406       .  A
C1607      C1614   1.449       .  S
C1608      C1609   1.410       .  A
C1609      C1610   1.408       .  A
C1609      C1612   1.453       .  S
C1610      C1613   1.451       .  S
C1611      N1618   1.157       .  T
C1612      N1617   1.157       .  T
C1613      N1615   1.158       .  T
C1614      N1616   1.157       .  T
C1619      C1620   1.420       .  A
C1619      C1624   1.404       .  A
C1620      C1621   1.417       .  A
C1620      C1625   1.448       .  S
C1621      C1622   1.414       .  A
C1622      C1623   1.436       .  A
C1623      C1624   1.420       .  A
C1623      C1626   1.452       .  S
C1624      C1627   1.452       .  S
C1625      N1632   1.155       .  T
C1626      N1631   1.157       .  T
C1627      N1629   1.158       .  T
C1628      N1630   1.158       .  T
C1633      C1634   1.412       .  A
C1633      C1638   1.410       .  A
C1634      C1635   1.406       .  A
C1634      C1639   1.445       .  S
C1635      C1636   1.415       .  A
C1635      C1642   1.455       .  S
C1636      C1637   1.419       .  A
C1637      C1638   1.418       .  A
C1638      C1641   1.450       .  S
C1639      N1646   1.154       .  T
C1640      N1645   1.158       .  T
C1641      N1643   1.157       .  T
C1642      N1644   1.158       .  T
C1647      C1648   1.423       .  A
C1647      C1652   1.424       .  A
C1648      C1649   1.414       .  A
C1648      C1653   1.450       .  S
C1649      C1650   1.412       .  A
C1649      C1656   1.454       .  S
C1650      C1651   1.410       .  A
C1651      C1652   1.421       .  A
C1651      C1654   1.450       .  S
C1652      C1655   1.448       .  S
C1653      N1660   1.157       .  T
C1654      N1659   1.157       .  T
C1655      N1657   1.156       .  T
C1656      N1658   1.157       .  T
C1661      C1662   1.415       .  A
C1661      C1666   1.404       .  A
C1662      C1663   1.420       .  A
C1662      C1667   1.450       .  S
C1663      C1664   1.418       .  A
C1663      C1670   1.450       .  S
C1664      C1665   1.431       .  A
C1665      C1666   1.415       .  A
C1665      C1668   1.452       .  S
C1666      C1669   1.451       .  S
C1667      N1674   1.157       .  T
C1668      N1673   1.157       .  T
C1669      N1671   1.157       .  T
C1670      N1672   1.158       .  T
C1675      C1676   1.444       .  A
C1675      C1680   1.416       .  A
C1676      C1677   1.411       .  A
C1676      C1681   1.451       .  S
C1677      C1678   1.395       .  A
C1677      C1684   1.455       .  S
C1678      C1679   1.415       .  A
C1679      C1680   1.424       .  A
C1679      C1682   1.446       .  S
C1680      C1683   1.447       .  S
C1681      N1688   1.157       .  T
C1682      N1687   1.157       .  T
C1683      N1685   1.158       .  T
C1684      N1686   1.158   1_556  T
C1689      C1690   1.430       .  A
C1689      C1694   1.413       .  A
C1690      C1691   1.405   1_545  A
C1690      C1695   1.454       .  S
C1691      C1692   1.396       .  A
C1691      C1698   1.451       .  S
C1692      C1693   1.417       .  A
C1693      C1694   1.427   1_565  A
C1693      C1696   1.447       .  S
C1694      C1697   1.446       .  S
C1695      N1702   1.157       .  T
C1696      N1701   1.157       .  T
C1697      N1699   1.157       .  T
C1698      N1700   1.157       .  T
C1703      C1704   1.426       .  A
C1703      C1708   1.423       .  A
C1704      C1705   1.400       .  A
C1704      C1709   1.453       .  S
C1705      C1706   1.403       .  A
C1705      C1712   1.453       .  S
C1706      C1707   1.409       .  A
C1707      C1708   1.419       .  A
C1707      C1710   1.450       .  S
C1708      C1711   1.449       .  S
C1710      N1715   1.157       .  T
C1711      N1713   1.157       .  T
C1712      N1714   1.157       .  T
C1717      C1718   1.416       .  A
C1717      C1722   1.408       .  A
C1718      C1719   1.428       .  A
C1718      C1723   1.449       .  S
C1719      C1720   1.422       .  A
C1719      C1726   1.448       .  S
C1720      C1721   1.426       .  A
C1721      C1722   1.404       .  A
C1721      C1724   1.457       .  S
C1722      C1725   1.449       .  S
C1723      N1730   1.157       .  T
C1724      N1729   1.158       .  T
C1725      N1727   1.155       .  T
C1726      N1728   1.158       .  T
C1731      C1736   1.416       .  A
C1732      C1733   1.399       .  A
C1732      C1737   1.444       .  S
C1733      C1734   1.409       .  A
C1733      C1740   1.455       .  S
C1735      C1736   1.423       .  A
C1735      C1738   1.444       .  S
C1736      C1739   1.446       .  S
C1737      N1744   1.155       .  T
C1738      N1743   1.156       .  T
C1739      N1741   1.156       .  T
C1740      N1742   1.157       .  T
C1745      C1746   1.415       .  A
C1745      C1750   1.424       .  A
C1746      C1747   1.413       .  A
C1746      C1751   1.452       .  S
C1747      C1748   1.410       .  A
C1747      C1754   1.441       .  S
C1748      C1749   1.407       .  A
C1749      C1750   1.419       .  A
C1749      C1752   1.450       .  S
C1750      C1753   1.449       .  S
C1751      N1758   1.158       .  T
C1752      N1757   1.157       .  T
C1753      N1755   1.157       .  T
C1754      N1756   1.153       .  T
C1759      C1760   1.416       .  A
C1759      C1764   1.413       .  A
C1760      C1761   1.425       .  A
C1760      C1765   1.444       .  S
C1761      C1762   1.414       .  A
C1761      C1768   1.449       .  S
C1762      C1763   1.417       .  A
C1763      C1764   1.409       .  A
C1763      C1766   1.454   1_545  S
C1764      C1767   1.452       .  S
C1765      N1772   1.156       .  T
C1766      N1771   1.157       .  T
C1767      N1769   1.157       .  T
C1768      N1770   1.157       .  T
C1773      C1774   1.419       .  A
C1773      C1778   1.439       .  A
C1774      C1775   1.427       .  A
C1774      C1779   1.449       .  S
C1775      C1776   1.416       .  A
C1775      C1782   1.443       .  S
C1776      C1777   1.401       .  A
C1777      C1778   1.418       .  A
C1778      C1781   1.453       .  S
C1779      N1786   1.157       .  T
C1780      N1785   1.157       .  T
C1781      N1783   1.158   1_565  T
C1782      N1784   1.155       .  T
C1787      C1788   1.416       .  A
C1787      C1792   1.418       .  A
C1788      C1789   1.411       .  A
C1788      C1793   1.453       .  S
C1789      C1790   1.416       .  A
C1789      C1796   1.452       .  S
C1790      C1791   1.412       .  A
C1791      C1792   1.408       .  A
C1791      C1794   1.453       .  S
C1792      C1795   1.449       .  S
C1793      N1800   1.158       .  T
C1794      N1799   1.158       .  T
C1795      N1797   1.157       .  T
C1796      N1798   1.157       .  T
C1801      C1802   1.429       .  A
C1801      C1806   1.418       .  A
C1802      C1803   1.415       .  A
C1803      C1804   1.405       .  A
C1803      C1810   1.452       .  S
C1804      C1805   1.413       .  A
C1805      C1806   1.412       .  A
C1805      C1808   1.453       .  S
C1806      C1809   1.450       .  S
C1807      N1814   1.158       .  T
C1808      N1813   1.157       .  T
C1809      N1811   1.157       .  T
C1810      N1812   1.157       .  T
C1815      C1816   1.402       .  A
C1815      C1820   1.419       .  A
C1816      C1817   1.403       .  A
C1816      C1821   1.445       .  S
C1817      C1818   1.417       .  A
C1817      C1824   1.450       .  S
C1818      C1819   1.410       .  A
C1819      C1820   1.415       .  A
C1820      C1823   1.449       .  S
C1821      N1828   1.155       .  T
C1822      N1827   1.158       .  T
C1823      N1825   1.157       .  T
C1824      N1826   1.156       .  T
C1829      C1830   1.425       .  A
C1829      C1834   1.415       .  A
C1830      C1831   1.406       .  A
C1830      C1835   1.451       .  S
C1831      C1832   1.403       .  A
C1831      C1838   1.450       .  S
C1832      C1833   1.421       .  A
C1833      C1834   1.424       .  A
C1833      C1836   1.444       .  S
C1834      C1837   1.449       .  S
C1835      N1842   1.158       .  T
C1836      N1841   1.155       .  T
C1837      N1839   1.157       .  T
C1838      N1840   1.158       .  T
C1843      C1844   1.425       .  A
C1843      C1848   1.409       .  A
C1844      C1845   1.418       .  A
C1844      C1849   1.452       .  S
C1845      C1846   1.408       .  A
C1845      C1852   1.448       .  S
C1846      C1847   1.423   1_556  A
C1847      C1848   1.422   1_554  A
C1849      N1856   1.157       .  T
C1850      N1855   1.157       .  T
C1851      N1853   1.157       .  T
C1852      N1854   1.156       .  T
C1857      C1858   1.411       .  A
C1857      C1862   1.406       .  A
C1858      C1859   1.396       .  A
C1858      C1863   1.455       .  S
C1860      C1861   1.421       .  A
C1861      C1864   1.451       .  S
C1862      C1865   1.450       .  S
C1863      N1870   1.157       .  T
C1864      N1869   1.157       .  T
C1865      N1867   1.157       .  T
C1866      N1868   1.158       .  T
C1871      C1872   1.401       .  A
C1871      C1876   1.413       .  A
C1872      C1873   1.410       .  A
C1872      C1877   1.453       .  S
C1873      C1874   1.434       .  A
C1873      C1880   1.454       .  S
C1874      C1875   1.419       .  A
C1875      C1876   1.417       .  A
C1875      C1878   1.450       .  S
C1876      C1879   1.451       .  S
C1877      N1884   1.157       .  T
C1878      N1883   1.158       .  T
C1879      N1881   1.157       .  T
C1880      N1882   1.158       .  T
C1885      C1886   1.426       .  A
C1885      C1890   1.424       .  A
C1886      C1887   1.412       .  A
C1886      C1891   1.453       .  S
C1887      C1888   1.414       .  A
C1887      C1894   1.455       .  S
C1888      C1889   1.414       .  A
C1889      C1890   1.420       .  A
C1889      C1892   1.449       .  S
C1890      C1893   1.451       .  S
C1891      N1898   1.158       .  T
C1892      N1897   1.157       .  T
C1894      N1896   1.158       .  T
C1899      C1900   1.418       .  A
C1899      C1904   1.413       .  A
C1900      C1901   1.406       .  A
C1900      C1905   1.454       .  S
C1901      C1902   1.411       .  A
C1901      C1908   1.452       .  S
C1902      C1903   1.411       .  A
C1903      C1904   1.415       .  A
C1903      C1906   1.445       .  S
C1904      C1907   1.449       .  S
C1905      N1912   1.157       .  T
C1906      N1911   1.156       .  T
C1907      N1909   1.157       .  T
C1908      N1910   1.157       .  T
C1913      C1914   1.406       .  A
C1913      C1918   1.418       .  A
C1914      C1915   1.396       .  A
C1914      C1919   1.454       .  S
C1915      C1916   1.420       .  A
C1915      C1922   1.456       .  S
C1916      C1917   1.413       .  A
C1917      C1918   1.425       .  A
C1917      C1920   1.447       .  S
C1918      C1921   1.448       .  S
C1919      N1926   1.157       .  T
C1920      N1925   1.157   1_565  T
C1921      N1923   1.157       .  T
C1922      N1924   1.157       .  T
C1927      C1928   1.415   1_565  A
C1927      C1932   1.397       .  A
C1928      C1929   1.419       .  A
C1928      C1933   1.446   1_545  S
C1929      C1930   1.413       .  A
C1929      C1936   1.449       .  S
C1930      C1931   1.433       .  A
C1931      C1932   1.409   1_545  A
C1931      C1934   1.448       .  S
C1932      C1935   1.452       .  S
C1933      N1940   1.156       .  T
C1934      N1939   1.155       .  T
C1935      N1937   1.157       .  T
C1936      N1938   1.157       .  T
C1941      C1942   1.417       .  A
C1941      C1946   1.419       .  A
C1942      C1943   1.411       .  A
C1942      C1947   1.452       .  S
C1943      C1944   1.411       .  A
C1943      C1950   1.449       .  S
C1944      C1945   1.407       .  A
C1945      C1946   1.415       .  A
C1945      C1948   1.450       .  S
C1946      C1949   1.448       .  S
C1947      N1954   1.157       .  T
C1948      N1953   1.156   1_655  T
C1949      N1951   1.156       .  T
C1950      N1952   1.156       .  T
C1955      C1956   1.419       .  A
C1955      C1960   1.422       .  A
C1956      C1957   1.418       .  A
C1956      C1961   1.449       .  S
C1957      C1964   1.449       .  S
C1958      C1959   1.417       .  A
C1959      C1962   1.456       .  S
C1961      N1968   1.157       .  T
C1962      N1967   1.158       .  T
C1963      N1965   1.157       .  T
C1964      N1966   1.157       .  T
C1969      C1970   1.427       .  A
C1970      C1971   1.418       .  A
C1970      C1975   1.449       .  S
C1971      C1978   1.451       .  S
C1972      C1973   1.413       .  A
C1973      C1974   1.411       .  A
C1973      C1976   1.452       .  S
C1974      C1977   1.450       .  S
C1975      N1982   1.156       .  T
C1976      N1981   1.157       .  T
C1977      N1979   1.157       .  T
C1978      N1980   1.158   1_455  T
C1983      C1984   1.419       .  A
C1983      C1988   1.414       .  A
C1984      C1985   1.410       .  A
C1984      C1989   1.453       .  S
C1985      C1986   1.417       .  A
C1985      C1992   1.452       .  S
C1986      C1987   1.420       .  A
C1987      C1988   1.401       .  A
C1987      C1990   1.456       .  S
C1988      C1991   1.455       .  S
C1989      N1996   1.157       .  T
C1990      N1995   1.157       .  T
C1991      N1993   1.158       .  T
C1992      N1994   1.158       .  T
C1997      C1998   1.407       .  A
C1997      C2002   1.427       .  A
C1998      C1999   1.418       .  A
C1998      C2003   1.454       .  S
C1999      C2000   1.434       .  A
C1999      C2006   1.451       .  S
C2000      C2001   1.410       .  A
C2001      C2002   1.423       .  A
C2002      C2005   1.448       .  S
C2003      N2010   1.158       .  T
C2004      N2009   1.157       .  T
C2005      N2007   1.156       .  T
C2006      N2008   1.157       .  T
C2011      C2012   1.404       .  A
C2011      C2016   1.411       .  A
C2012      C2013   1.417       .  A
C2012      C2017   1.451       .  S
C2013      C2014   1.433       .  A
C2013      C2020   1.451       .  S
C2014      C2015   1.422       .  A
C2015      C2016   1.412       .  A
C2015      C2018   1.452       .  S
C2016      C2019   1.452       .  S
C2017      N2024   1.157       .  T
C2018      N2023   1.158       .  T
C2019      N2021   1.157       .  T
C2020      N2022   1.157       .  T
C2025      C2026   1.418       .  A
C2025      C2030   1.415       .  A
C2026      C2027   1.410       .  A
C2026      C2031   1.452       .  S
C2027      C2028   1.410       .  A
C2027      C2034   1.452       .  S
C2028      C2029   1.413       .  A
C2029      C2030   1.420       .  A
C2029      C2032   1.449       .  S
C2030      C2033   1.450       .  S
C2031      N2038   1.158       .  T
C2032      N2037   1.158       .  T
C2033      N2035   1.157       .  T
C2034      N2036   1.157       .  T
C2039      C2040   1.433       .  A
C2039      C2044   1.405       .  A
C2040      C2041   1.417       .  A
C2040      C2045   1.450       .  S
C2041      C2042   1.405       .  A
C2041      C2048   1.454       .  S
C2042      C2043   1.432       .  A
C2043      C2044   1.416       .  A
C2043      C2046   1.448       .  S
C2044      C2047   1.453       .  S
C2045      N2052   1.157       .  T
C2046      N2051   1.156       .  T
C2047      N2049   1.157       .  T
C2048      N2050   1.157       .  T
C2053      C2054   1.412       .  A
C2053      C2058   1.407       .  A
C2054      C2055   1.404       .  A
C2054      C2059   1.452       .  S
C2055      C2056   1.413       .  A
C2055      C2062   1.453       .  S
C2056      C2057   1.416       .  A
C2057      C2058   1.411       .  A
C2057      C2060   1.450       .  S
C2058      C2061   1.450       .  S
C2059      N2066   1.157       .  T
C2060      N2065   1.157       .  T
C2061      N2063   1.157       .  T
C2062      N2064   1.158       .  T
C2067      C2068   1.415       .  A
C2067      C2072   1.416       .  A
C2068      C2069   1.428       .  A
C2068      C2073   1.449       .  S
C2069      C2070   1.419       .  A
C2069      C2076   1.448       .  S
C2070      C2071   1.415       .  A
C2071      C2072   1.411       .  A
C2071      C2074   1.453       .  S
C2072      C2075   1.449       .  S
C2073      N2080   1.157       .  T
C2074      N2079   1.157       .  T
C2076      N2078   1.158       .  T
C2081      C2082   1.410       .  A
C2081      C2086   1.428       .  A
C2082      C2083   1.415   1_655  A
C2082      C2087   1.453   1_655  S
C2083      C2084   1.429       .  A
C2083      C2090   1.453       .  S
C2084      C2085   1.411   1_455  A
C2085      C2086   1.418       .  A
C2085      C2088   1.451       .  S
C2086      C2089   1.452       .  S
C2087      N2094   1.158       .  T
C2088      N2093   1.158   1_556  T
C2089      N2091   1.157       .  T
C2090      N2092   1.157       .  T
C2095      C2096   1.418       .  A
C2095      C2100   1.407       .  A
C2096      C2097   1.406       .  A
C2096      C2101   1.453       .  S
C2097      C2098   1.414       .  A
C2097      C2104   1.454       .  S
C2098      C2099   1.421       .  A
C2099      C2100   1.407       .  A
C2099      C2102   1.452       .  S
C2100      C2103   1.453       .  S
C2101      N2108   1.158       .  T
C2102      N2107   1.157       .  T
C2103      N2105   1.157       .  T
C2104      N2106   1.158   1_556  T
C2109      C2110   1.428       .  A
C2109      C2114   1.412       .  A
C2110      C2111   1.415       .  A
C2110      C2115   1.451       .  S
C2111      C2112   1.406       .  A
C2111      C2118   1.452       .  S
C2112      C2113   1.417       .  A
C2113      C2114   1.408       .  A
C2113      C2116   1.453       .  S
C2114      C2117   1.447       .  S
C2115      N2122   1.157       .  T
C2116      N2121   1.157       .  T
C2117      N2119   1.155       .  T
C2118      N2120   1.157       .  T
C2123      C2124   1.407       .  A
C2123      C2128   1.416       .  A
C2124      C2125   1.411       .  A
C2124      C2129   1.452       .  S
C2125      C2126   1.420       .  A
C2125      C2132   1.450       .  S
C2126      C2127   1.404       .  A
C2127      C2128   1.408       .  A
C2127      C2130   1.451       .  S
C2128      C2131   1.448       .  S
C2129      N2136   1.158       .  T
C2130      N2135   1.157       .  T
C2131      N2133   1.156       .  T
C2132      N2134   1.157       .  T
C2137      C2138   1.432       .  A
C2137      C2142   1.424       .  A
C2138      C2139   1.416       .  A
C2138      C2143   1.451       .  S
C2139      C2140   1.403       .  A
C2139      C2146   1.451       .  S
C2140      C2141   1.411       .  A
C2141      C2142   1.413       .  A
C2141      C2144   1.453       .  S
C2142      C2145   1.452       .  S
C2144      N2149   1.157       .  T
C2145      N2147   1.158       .  T
C2146      N2148   1.157       .  T
C2151      C2152   1.416       .  A
C2151      C2156   1.417       .  A
C2152      C2153   1.433       .  A
C2152      C2157   1.446       .  S
C2153      C2154   1.421       .  A
C2153      C2160   1.446       .  S
C2154      C2155   1.412       .  A
C2155      C2156   1.395       .  A
C2155      C2158   1.455       .  S
C2157      N2164   1.157       .  T
C2158      N2163   1.157   1_556  T
C2159      N2161   1.157       .  T
C2160      N2162   1.157       .  T
C2165      C2166   1.427       .  A
C2165      C2170   1.427       .  A
C2166      C2167   1.411       .  A
C2166      C2171   1.453       .  S
C2167      C2168   1.408       .  A
C2167      C2174   1.450       .  S
C2168      C2169   1.410       .  A
C2169      C2170   1.419       .  A
C2169      C2172   1.448       .  S
C2170      C2173   1.451       .  S
C2171      N2178   1.158       .  T
C2172      N2177   1.157       .  T
C2173      N2175   1.158       .  T
C2174      N2176   1.156   1_455  T
C2179      C2184   1.417       .  A
C2180      C2181   1.424       .  A
C2180      C2185   1.449       .  S
C2181      C2182   1.418       .  A
C2181      C2188   1.450       .  S
C2183      C2184   1.402       .  A
C2183      C2186   1.458       .  S
C2184      C2187   1.450       .  S
C2185      N2192   1.158       .  T
C2186      N2191   1.158       .  T
C2187      N2189   1.154       .  T
C2188      N2190   1.157       .  T
C2193      C2198   1.410   1_556  A
C2194      C2195   1.411       .  A
C2195      C2196   1.422       .  A
C2195      C2202   1.452       .  S
C2196      C2197   1.423       .  A
C2197      C2200   1.452       .  S
C2198      C2201   1.451       .  S
C2199      N2206   1.157       .  T
C2200      N2205   1.158       .  T
C2201      N2203   1.157   1_655  T
C2202      N2204   1.158       .  T
C2207      C2208   1.410       .  A
C2207      C2212   1.410       .  A
C2208      C2209   1.423       .  A
C2208      C2213   1.443       .  S
C2209      C2210   1.418       .  A
C2209      C2216   1.448       .  S
C2210      C2211   1.424       .  A
C2211      C2212   1.415       .  A
C2211      C2214   1.450       .  S
C2212      C2215   1.452       .  S
C2213      N2220   1.156       .  T
C2214      N2219   1.158       .  T
C2215      N2217   1.157   1_545  T
C2216      N2218   1.157       .  T
C2221      C2222   1.418       .  A
C2221      C2226   1.405       .  A
C2222      C2223   1.417   1_455  A
C2222      C2227   1.450       .  S
C2223      C2224   1.409       .  A
C2223      C2230   1.444       .  S
C2224      C2225   1.431   1_655  A
C2225      C2226   1.418       .  A
C2225      C2228   1.452       .  S
C2226      C2229   1.450       .  S
C2227      N2234   1.156       .  T
C2228      N2233   1.158       .  T
C2229      N2231   1.157       .  T
C2230      N2232   1.155       .  T
C2235      C2236   1.432       .  A
C2235      C2240   1.412       .  A
C2236      C2237   1.412       .  A
C2236      C2241   1.449       .  S
C2237      C2238   1.398       .  A
C2237      C2244   1.453       .  S
C2238      C2239   1.411       .  A
C2239      C2240   1.415       .  A
C2239      C2242   1.442       .  S
C2240      C2243   1.450       .  S
C2241      N2248   1.156       .  T
C2242      N2247   1.154   1_455  T
C2243      N2245   1.157       .  T
C2244      N2246   1.158       .  T
C2249      C2250   1.413       .  A
C2249      C2254   1.416       .  A
C2250      C2251   1.406       .  A
C2250      C2255   1.454       .  S
C2251      C2252   1.413       .  A
C2251      C2258   1.451       .  S
C2252      C2253   1.409       .  A
C2253      C2254   1.407       .  A
C2253      C2256   1.452       .  S
C2254      C2257   1.452       .  S
C2255      N2262   1.157       .  T
C2256      N2261   1.157       .  T
C2257      N2259   1.157       .  T
C2258      N2260   1.157       .  T
C2263      C2264   1.406       .  A
C2263      C2268   1.416       .  A
C2264      C2265   1.420       .  A
C2264      C2269   1.451       .  S
C2265      C2266   1.432       .  A
C2265      C2272   1.451       .  S
C2266      C2267   1.419       .  A
C2267      C2268   1.414       .  A
C2267      C2270   1.452       .  S
C2269      N2276   1.157       .  T
C2270      N2275   1.158       .  T
C2271      N2273   1.156   1_554  T
C2272      N2274   1.158       .  T
C2277      C2278   1.406       .  A
C2277      C2282   1.417       .  A
C2278      C2279   1.409       .  A
C2278      C2283   1.452       .  S
C2279      C2280   1.419       .  A
C2279      C2286   1.451       .  S
C2280      C2281   1.411       .  A
C2281      C2282   1.411       .  A
C2281      C2284   1.452       .  S
C2282      C2285   1.451       .  S
C2284      N2289   1.158       .  T
C2285      N2287   1.157       .  T
C2286      N2288   1.157       .  T
C2291      C2292   1.421       .  A
C2291      C2296   1.428       .  A
C2292      C2293   1.418       .  A
C2292      C2297   1.451       .  S
C2293      C2294   1.416       .  A
C2293      C2300   1.452       .  S
C2294      C2295   1.409       .  A
C2295      C2296   1.422       .  A
C2295      C2298   1.449       .  S
C2296      C2299   1.450       .  S
C2297      N2304   1.157       .  T
C2298      N2303   1.157       .  T
C2299      N2301   1.157       .  T
C2300      N2302   1.157       .  T
