geometry optimzed in LAMMPS
_audit_creation_date              2020-11-30 
_audit_creation_method            'lammps2cif' 
_symmetry_space_group_name_H-M    'P1' 
_symmetry_Int_Tables_number       1 
_symmetry_cell_setting            triclinic 
loop_ 
_symmetry_equiv_pos_as_xyz 
  x,y,z 
_cell_length_a                    39.62253099 
_cell_length_b                    39.670048971298584 
_cell_length_c                    39.700740983282635 
_cell_angle_alpha                 89.98151757182261 
_cell_angle_beta                  90.05677235618958 
_cell_angle_gamma                 90.05262245459419 
loop_ 
_atom_site_label 
_atom_site_type_symbol 
_atom_site_fract_x 
_atom_site_fract_y 
_atom_site_fract_z 
_atom_site_charge 
O1          O  0.53276785  0.22190989  0.97067751    -0.74400
O2          O  0.46057947  0.22807691  0.03419533    -0.74400
O3          O  0.46484731  0.22377664  0.96605724    -0.74500
O4          O  0.52812442  0.22638982  0.03889738    -0.74500
O5          O  0.52970109  0.28249788  0.03561571    -0.74500
O6          O  0.46711510  0.27956120  0.96190230    -0.74400
O7          O  0.46161776  0.28394495  0.03030384    -0.74400
O8          O  0.53496926  0.27796096  0.96749923    -0.74500
Ni9        Ni  0.49652069  0.22307705  0.00253488     1.25400
Ni10       Ni  0.49837654  0.28301056  0.99869868     1.25400
C11         C  0.54574662  0.24887630  0.95852278     0.87800
C12         C  0.44963515  0.25698736  0.04350347     0.87700
C13         C  0.45601274  0.25108702  0.95132127     0.87800
C14         C  0.53872782  0.25489691  0.04974962     0.87900
O15         O  0.28377915  0.53567168  0.03196534    -0.74400
O16         O  0.28063037  0.46777477  0.96332696    -0.74400
O17         O  0.28384182  0.53601520  0.96344183    -0.74500
O18         O  0.28083168  0.46739373  0.03138828    -0.74500
O19         O  0.22461301  0.47012074  0.03170135    -0.74500
O20         O  0.22755211  0.53820437  0.96328862    -0.74400
O21         O  0.22442593  0.46999140  0.96367181    -0.74400
O22         O  0.22762718  0.53804699  0.03176394    -0.74500
Ni23       Ni  0.28429319  0.50167778  0.99752235     1.25400
Ni24       Ni  0.22407121  0.50423713  0.99757832     1.25400
C25         C  0.25614866  0.54783809  0.04345431     0.87800
C26         C  0.25196572  0.45770340  0.95219096     0.87700
C27         C  0.25615852  0.54804026  0.95191772     0.87800
C28         C  0.25222526  0.45731306  0.04254695     0.87900
O29         O  0.53323766  0.76636516  0.02938872    -0.74400
O30         O  0.46509746  0.76994485  0.96161982    -0.74400
O31         O  0.46535453  0.76988812  0.02986657    -0.74500
O32         O  0.53288404  0.76640078  0.96127353    -0.74500
O33         O  0.53080168  0.71020626  0.96170133    -0.74500
O34         O  0.46167581  0.71377712  0.02926163    -0.74400
O35         O  0.46226722  0.71391892  0.96086709    -0.74400
O36         O  0.53011240  0.71040585  0.03012476    -0.74500
Ni37       Ni  0.49923200  0.77008077  0.99553100     1.25400
Ni38       Ni  0.49609868  0.71001473  0.99547432     1.25400
C39         C  0.54288377  0.73793605  0.04126532     0.87800
C40         C  0.45265063  0.74266889  0.94963413     0.87700
C41         C  0.45260643  0.74242662  0.04106729     0.87800
C42         C  0.54289075  0.73784309  0.95011944     0.87900
O43         O  0.72398237  0.52761862  0.96683248    -0.74400
O44         O  0.72502213  0.46155841  0.03701534    -0.74400
O45         O  0.72417071  0.52957973  0.03481689    -0.74500
O46         O  0.72471022  0.45927790  0.96874427    -0.74500
O47         O  0.78094423  0.46034814  0.96809730    -0.74500
O48         O  0.78043568  0.52963153  0.03513256    -0.74400
O49         O  0.78106489  0.46155955  0.03645612    -0.74400
O50         O  0.78018524  0.52857565  0.96689995    -0.74500
Ni51       Ni  0.72247857  0.49443016  0.00181400     1.25400
Ni52       Ni  0.78266684  0.49501893  0.00161276     1.25400
C53         C  0.75187351  0.53946809  0.95567732     0.87800
C54         C  0.75319596  0.45082365  0.04873621     0.87700
C55         C  0.75225095  0.54091818  0.04612045     0.87800
C56         C  0.75290368  0.44851414  0.95721490     0.87900
O57         O  0.27212554  0.03843855  0.53316560    -0.74400
O58         O  0.27899799  0.97051867  0.46500659    -0.74400
O59         O  0.27677009  0.03886930  0.46502754    -0.74500
O60         O  0.27426673  0.97027446  0.53310850    -0.74500
O61         O  0.21818915  0.96796846  0.52874187    -0.74500
O62         O  0.22064174  0.03737102  0.46167347    -0.74400
O63         O  0.22304560  0.96895012  0.46082190    -0.74400
O64         O  0.21609758  0.03646411  0.52975118    -0.74500
Ni65       Ni  0.27752406  0.00460585  0.49919611     1.25400
Ni66       Ni  0.21749712  0.00264574  0.49509643     1.25400
C67         C  0.24303391  0.04868799  0.54283110     0.87800
C68         C  0.25221434  0.95837648  0.45163512     0.87700
C69         C  0.24907012  0.04943102  0.45211709     0.87800
C70         C  0.24583466  0.95761109  0.54187562     0.87900
O71         O  0.03127627  0.78237276  0.53112434    -0.74400
O72         O  0.96422048  0.78317724  0.46152590    -0.74400
O73         O  0.96303149  0.78270580  0.53003125    -0.74500
O74         O  0.03274320  0.78272221  0.46302903    -0.74500
O75         O  0.03210806  0.72653239  0.46255649    -0.74500
O76         O  0.96260569  0.72662946  0.52968031    -0.74400
O77         O  0.96377638  0.72701461  0.46119204    -0.74400
O78         O  0.03067850  0.72616043  0.53087177    -0.74500
Ni79       Ni  0.99777728  0.78474286  0.49637450     1.25400
Ni80       Ni  0.99724732  0.72459302  0.49600479     1.25400
C81         C  0.04168302  0.75411007  0.54275297     0.87800
C82         C  0.95285047  0.75524740  0.44992308     0.87700
C83         C  0.95169779  0.75468184  0.54143162     0.87800
C84         C  0.04420739  0.75460289  0.45206355     0.87900
O85         O  0.72702754  0.02756029  0.46628282    -0.74400
O86         O  0.72945947  0.95981852  0.53533785    -0.74400
O87         O  0.72708197  0.02804803  0.53451749    -0.74500
O88         O  0.72892239  0.95958229  0.46681959    -0.74500
O89         O  0.78512607  0.96107590  0.46655808    -0.74500
O90         O  0.78320115  0.02989232  0.53471289    -0.74400
O91         O  0.78547661  0.96190250  0.53524158    -0.74400
O92         O  0.78324304  0.02926053  0.46631432    -0.74500
Ni93       Ni  0.72613946  0.99364943  0.50076354     1.25400
Ni94       Ni  0.78625969  0.99555564  0.50068529     1.25400
C95         C  0.75482910  0.03966990  0.45502451     0.87800
C96         C  0.75797275  0.94979014  0.54699946     0.87700
C97         C  0.75470950  0.03999689  0.54623470     0.87800
C98         C  0.75720721  0.94932618  0.45510990     0.87900
O99         O  0.03225384  0.22347648  0.46827428    -0.74400
O100        O  0.96127537  0.22128053  0.53398257    -0.74400
O101        O  0.96402358  0.22193540  0.46580993    -0.74500
O102        O  0.02950388  0.22256475  0.53655496    -0.74500
O103        O  0.02826913  0.27859425  0.53753226    -0.74500
O104        O  0.96339026  0.27798320  0.46579723    -0.74400
O105        O  0.96019889  0.27746601  0.53422356    -0.74400
O106        O  0.03142441  0.27957508  0.46939574    -0.74500
Ni107      Ni  0.99679476  0.22031705  0.50114003     1.25400
Ni108      Ni  0.99573370  0.28039462  0.50175949     1.25400
C109        C  0.04365675  0.25195416  0.45806020     0.87800
C110        C  0.94916211  0.24910858  0.54501238     0.87700
C111        C  0.95330028  0.24977805  0.45357827     0.87800
C112        C  0.03979914  0.25057148  0.54880200     0.87900
C113        C  0.27031816  0.25626872  0.22450546     0.02300
C114        C  0.24599207  0.28227988  0.22553512     0.02300
C115        C  0.22133400  0.28219359  0.25079302    -0.18200
C116        C  0.22041484  0.25667059  0.27523105     0.02300
C117        C  0.24534739  0.23111180  0.27470636     0.02300
C118        C  0.27009880  0.23131926  0.24949098    -0.18200
H119        H  0.28901734  0.21158817  0.24900367     0.04300
H120        H  0.20284365  0.30231399  0.25156793     0.04300
C121        C  0.71645480  0.24771897  0.23019113     0.02300
C122        C  0.74140168  0.27319903  0.23019477     0.02300
C123        C  0.76720597  0.27238212  0.25429859    -0.18200
C124        C  0.76861832  0.24677505  0.27851441     0.02300
C125        C  0.74420274  0.22077436  0.27798963     0.02300
C126        C  0.71804945  0.22181049  0.25418042    -0.18200
H127        H  0.69906991  0.20209616  0.25403831     0.04300
H128        H  0.78638670  0.29190938  0.25423063     0.04300
C129        C  0.72625372  0.23928423  0.78069651     0.02300
C130        C  0.75177874  0.26416501  0.78253072     0.02300
C131        C  0.77678369  0.26528236  0.75759142    -0.18200
C132        C  0.77764638  0.24133980  0.73168010     0.02300
C133        C  0.75235416  0.21615129  0.73003498     0.02300
C134        C  0.72651738  0.21594320  0.75420782    -0.18200
H135        H  0.70671641  0.19710454  0.75270426     0.04300
H136        H  0.79594819  0.28481096  0.75853155     0.04300
C137        C  0.75253430  0.72919547  0.21618266     0.02300
C138        C  0.72650197  0.75363015  0.21649486     0.02300
C139        C  0.72636961  0.77859952  0.24151931    -0.18200
C140        C  0.75185304  0.77978323  0.26606820     0.02300
C141        C  0.77790556  0.75551900  0.26556499     0.02300
C142        C  0.77777024  0.73029966  0.24092411    -0.18200
H143        H  0.79731863  0.71118732  0.24119834     0.04300
H144        H  0.70635439  0.79721720  0.24188507     0.04300
C145        C  0.73387184  0.75051817  0.78337639     0.02300
C146        C  0.75917189  0.72534437  0.78283898     0.02300
C147        C  0.78393506  0.72594154  0.75769282    -0.18200
C148        C  0.78420406  0.75131470  0.73314469     0.02300
C149        C  0.75953625  0.77702997  0.73406300     0.02300
C150        C  0.73442978  0.77617482  0.75897181    -0.18200
H151        H  0.71478459  0.79517615  0.75890127     0.04300
H152        H  0.80299404  0.70635464  0.75705632     0.04300
C153        C  0.27800436  0.74870891  0.22544400     0.02300
C154        C  0.25155470  0.72467251  0.22558492     0.02300
C155        C  0.22754049  0.72527883  0.25145811    -0.18200
C156        C  0.22930036  0.74922212  0.27742688     0.02300
C157        C  0.25586998  0.77313008  0.27745510     0.02300
C158        C  0.28001860  0.77238528  0.25165754    -0.18200
H159        H  0.30042065  0.79061815  0.25183887     0.04300
H160        H  0.20707899  0.70710836  0.25119819     0.04300
C161        C  0.24370405  0.73154808  0.77611151     0.02300
C162        C  0.26719732  0.75856638  0.77637360     0.02300
C163        C  0.26592201  0.78304634  0.75087622    -0.18200
C164        C  0.24201983  0.78119218  0.72488363     0.02300
C165        C  0.21825619  0.75463216  0.72495612     0.02300
C166        C  0.21933035  0.73015965  0.75043138    -0.18200
H167        H  0.20158085  0.70935266  0.74969862     0.04300
H168        H  0.28399298  0.80359737  0.75107361     0.04300
C169        C  0.27422488  0.25132665  0.77351019     0.02300
C170        C  0.24933252  0.27681257  0.77492597     0.02300
C171        C  0.22328947  0.27718339  0.75110613    -0.18200
C172        C  0.22178329  0.25298954  0.72551954     0.02300
C173        C  0.24629094  0.22714642  0.72425613     0.02300
C174        C  0.27257028  0.22691433  0.74797712    -0.18200
H175        H  0.29149007  0.20721141  0.74696109     0.04300
H176        H  0.20438085  0.29691070  0.75208798     0.04300
C177        C  0.11275635  0.22715110  0.60715423    -0.11300
C178        C  0.11463122  0.25584258  0.62752866     0.15200
C179        C  0.09148970  0.28239783  0.62260281     0.02100
C180        C  0.06710661  0.27961744  0.59721292    -0.15700
C181        C  0.06518925  0.25093289  0.57640034    -0.10500
C182        C  0.08824063  0.22416383  0.58203272     0.08800
C183        C  0.14134132  0.25698364  0.65337111     0.09900
S184        S  0.09147625  0.32038375  0.64768565    -0.24800
H185        H  0.04953694  0.30022990  0.59363486     0.20100
S186        S  0.08890997  0.18604463  0.55748792    -0.30500
H187        H  0.13056669  0.20676585  0.61100227     0.10400
C188        C  0.13458817  0.24942929  0.68735020     0.03600
C189        C  0.16127038  0.24892487  0.71053531    -0.12800
C190        C  0.19448516  0.25564631  0.70027025    -0.08500
C191        C  0.20085924  0.26477767  0.66647059     0.07100
C192        C  0.17433934  0.26460069  0.64326999    -0.13600
S193        S  0.09222197  0.23958511  0.70090144    -0.30500
H194        H  0.15648463  0.24261160  0.73663941     0.11300
S195        S  0.24177624  0.27795075  0.65148096    -0.27600
H196        H  0.17932605  0.27087758  0.61716700     0.08600
H197        H  0.05739784  0.17529210  0.56983782     0.27000
H198        H  0.09991611  0.23471925  0.73515779     0.21800
H199        H  0.25406091  0.28984278  0.68249586     0.27100
H200        H  0.12520567  0.31906827  0.65845418     0.15900
C201        C  0.11887402  0.23043555  0.40207844    -0.11300
C202        C  0.12007078  0.25878606  0.38102963     0.15200
C203        C  0.09627061  0.28481925  0.38558600     0.02100
C204        C  0.07179709  0.28175707  0.41078843    -0.15700
C205        C  0.07069727  0.25350766  0.43222787    -0.10500
C206        C  0.09506245  0.22776850  0.42792874     0.08800
C207        C  0.14590018  0.25983742  0.35409115     0.09900
S208        S  0.09575551  0.32256196  0.36022038    -0.24800
H209        H  0.05336389  0.30172526  0.41359032     0.20100
S210        S  0.09840200  0.19171792  0.45531532    -0.30500
H211        H  0.13706617  0.21039897  0.39860540     0.10400
C212        C  0.18060758  0.26161975  0.36171763     0.03600
C213        C  0.20422845  0.26094482  0.33549243    -0.12800
C214        C  0.19401168  0.25786110  0.30175041    -0.08500
C215        C  0.15908995  0.25680427  0.29414695     0.07100
C216        C  0.13554331  0.25787835  0.32037659    -0.13600
S217        S  0.19486185  0.26585090  0.40474812    -0.30500
H218        H  0.23085233  0.26310659  0.34121611     0.11300
S219        S  0.14258431  0.25377118  0.25182705    -0.27600
H220        H  0.10884802  0.25653957  0.31452200     0.08600
H221        H  0.09348961  0.21058700  0.48489197     0.27000
H222        H  0.22952507  0.26206497  0.39810694     0.21800
H223        H  0.17036307  0.23734783  0.23735502     0.27100
H224        H  0.13070316  0.32370948  0.35426704     0.15900
C225        C  0.89695258  0.22180474  0.38053184    -0.11300
C226        C  0.87807738  0.25110344  0.37480702     0.15200
C227        C  0.88513840  0.28026801  0.39393065     0.02100
C228        C  0.90970422  0.27903446  0.41922349    -0.15700
C229        C  0.92855291  0.24961421  0.42534909    -0.10500
C230        C  0.92264418  0.22097759  0.40470647     0.08800
C231        C  0.85032626  0.25001625  0.34975842     0.09900
S232        S  0.86392014  0.31991962  0.38715396    -0.24800
H233        H  0.91404697  0.30141683  0.43424603     0.20100
S234        S  0.94756356  0.18303424  0.40657203    -0.30500
H235        H  0.89186605  0.19944281  0.36567804     0.10400
C236        C  0.85656704  0.24429498  0.31524878     0.03600
C237        C  0.82934982  0.24291846  0.29269736    -0.12800
C238        C  0.79611382  0.24790203  0.30377118    -0.08500
C239        C  0.79011850  0.25524652  0.33806614     0.07100
C240        C  0.81709631  0.25513068  0.36078098    -0.13600
S241        S  0.89918536  0.24021660  0.29963303    -0.30500
H242        H  0.83386639  0.23821738  0.26621807     0.11300
S243        S  0.74923904  0.26690840  0.35424068    -0.27600
H244        H  0.81230172  0.26006376  0.38719466     0.08600
H245        H  0.97857525  0.20036554  0.40763390     0.27000
H246        H  0.89080555  0.23737257  0.26531047     0.21800
H247        H  0.73661630  0.28064948  0.32413479     0.27100
H248        H  0.85877390  0.31548854  0.35238292     0.15900
C249        C  0.87402943  0.22495370  0.59961407    -0.11300
C250        C  0.87707822  0.24844113  0.62581861     0.15200
C251        C  0.90351626  0.27229387  0.62500367     0.02100
C252        C  0.92580570  0.27255042  0.59772716    -0.17300
C253        C  0.92305365  0.24885431  0.57157268    -0.10500
C254        C  0.89650845  0.22500829  0.57243541     0.08800
C255        C  0.85201402  0.24758782  0.65335065     0.09900
S256        S  0.91055349  0.30266346  0.65812445    -0.24800
H257        H  0.94623091  0.29075710  0.59750924     0.20100
S258        S  0.88897498  0.19507527  0.53909838    -0.30500
H259        H  0.85351663  0.20688358  0.60004184     0.10400
C260        C  0.82658401  0.27224423  0.65615520     0.03600
C261        C  0.80322946  0.27012120  0.68258455    -0.12800
C262        C  0.80476896  0.24377860  0.70613609    -0.08500
C263        C  0.83090935  0.21971559  0.70378963     0.07100
C264        C  0.85381481  0.22150888  0.67709036    -0.13600
S265        S  0.82312548  0.30562906  0.62540538    -0.30500
H266        H  0.78309266  0.28845698  0.68448817     0.11300
S267        S  0.83686282  0.18664646  0.73431692    -0.27600
H268        H  0.87361919  0.20278712  0.67510566     0.08600
H269        H  0.89864370  0.21692550  0.51289289     0.27000
H270        H  0.79617567  0.32274164  0.64082569     0.21800
H271        H  0.82348045  0.20457431  0.76175597     0.27100
H272        H  0.89719805  0.28310653  0.68445464     0.15900
C273        C  0.72638258  0.09512844  0.61980313    -0.11300
C274        C  0.75392301  0.11703807  0.62307220     0.15200
C275        C  0.78210826  0.11292877  0.60170368     0.02100
C276        C  0.78146095  0.08796414  0.57675598    -0.15700
C277        C  0.75382856  0.06591796  0.57329035    -0.10500
C278        C  0.72623871  0.06933391  0.59579860     0.08800
C279        C  0.75284060  0.14286229  0.64998717     0.09900
S280        S  0.81987906  0.13818635  0.60522801    -0.24800
H281        H  0.80295851  0.08560975  0.56006848     0.20100
S282        S  0.69091124  0.04068049  0.59685293    -0.30500
H283        H  0.70507006  0.09768853  0.63671844     0.10400
C284        C  0.75017116  0.17753132  0.64273160     0.03600
C285        C  0.74973541  0.20082852  0.66930041    -0.12800
C286        C  0.75219008  0.19023751  0.70300679    -0.08500
C287        C  0.75398549  0.15531099  0.71014735     0.07100
C288        C  0.75406812  0.13215239  0.68360783    -0.13600
S289        S  0.74624131  0.19204214  0.59978503    -0.30500
H290        H  0.74719195  0.22744401  0.66389236     0.11300
S291        S  0.75658512  0.13830109  0.75228136    -0.27600
H292        H  0.75573636  0.10545362  0.68917061     0.08600
H293        H  0.71103811  0.01155702  0.59435911     0.27000
H294        H  0.74736516  0.22674844  0.60698129     0.21800
H295        H  0.77277569  0.16598376  0.76721110     0.27100
H296        H  0.81714764  0.14529471  0.63979352     0.15900
C297        C  0.77664174  0.11485258  0.39945611    -0.11300
C298        C  0.75130947  0.11266409  0.37492535     0.15200
C299        C  0.72752118  0.08621057  0.37653720     0.02100
C300        C  0.72893165  0.06320798  0.40322693    -0.15700
C301        C  0.75401532  0.06554746  0.42816806    -0.10500
C302        C  0.77803786  0.09193751  0.42621830     0.08800
C303        C  0.74878826  0.13992212  0.34967615     0.09900
S304        S  0.69463008  0.08064469  0.34555608    -0.24800
H305        H  0.71059535  0.04294375  0.40418971     0.20100
S306        S  0.80964306  0.09926732  0.45810111    -0.30500
H307        H  0.79464014  0.13542446  0.39847379     0.10400
C308        C  0.72434489  0.16550350  0.35275564     0.03600
C309        C  0.72269775  0.19096630  0.32835757    -0.12800
C310        C  0.74575329  0.19199554  0.30162117    -0.08500
C311        C  0.76996166  0.16607659  0.29832159     0.07100
C312        C  0.77146880  0.14053210  0.32260706    -0.13600
S313        S  0.69607772  0.16636836  0.38841771    -0.30500
H314        H  0.70392365  0.21066026  0.33045454     0.11300
S315        S  0.79915949  0.16382583  0.26355032    -0.27600
H316        H  0.79015602  0.12075113  0.32021172     0.08600
H317        H  0.78823810  0.09161594  0.48533049     0.27000
H318        H  0.68031962  0.19713235  0.38051258     0.21800
H319        H  0.77873976  0.18060948  0.23995916     0.27100
H320        H  0.71205933  0.09549178  0.31853453     0.15900
C321        C  0.72778724  0.83211833  0.34255083    -0.11300
C322        C  0.75349523  0.85648533  0.34262544     0.15200
C323        C  0.77797207  0.85609380  0.31680224     0.02100
C324        C  0.77659751  0.83105783  0.29202976    -0.15700
C325        C  0.75111983  0.80644999  0.29218536    -0.10500
C326        C  0.72636521  0.80710414  0.31775487     0.08800
C327        C  0.75482063  0.88089771  0.37083962     0.09900
S328        S  0.81144029  0.88680240  0.31396680    -0.24800
H329        H  0.79556149  0.83075590  0.27239438     0.20100
S330        S  0.69290092  0.77636070  0.32080248    -0.30500
H331        H  0.70909413  0.83217065  0.36246692     0.10400
C332        C  0.72956000  0.90547318  0.37510643     0.03600
C333        C  0.73085539  0.92699757  0.40307887    -0.12800
C334        C  0.75702331  0.92472149  0.42694571    -0.08500
C335        C  0.78231614  0.89994509  0.42250484     0.07100
C336        C  0.78106960  0.87855438  0.39445857    -0.13600
S337        S  0.69628910  0.91020220  0.34429518    -0.30500
H338        H  0.71166120  0.94616559  0.40605315     0.11300
S339        S  0.81555464  0.89291999  0.45262370    -0.27600
H340        H  0.80024837  0.85932634  0.39143187     0.08600
H341        H  0.71059932  0.74935262  0.30630316     0.27000
H342        H  0.67985275  0.93747825  0.35984191     0.21800
H343        H  0.79410393  0.89674687  0.48054365     0.27100
H344        H  0.79354300  0.91341081  0.32900874     0.15900
C345        C  0.76359670  0.86201189  0.68946625    -0.11300
C346        C  0.75739602  0.85235574  0.65603538     0.15200
C347        C  0.75161463  0.81804130  0.64851169     0.02100
C348        C  0.75168727  0.79435074  0.67455424    -0.15700
C349        C  0.75853941  0.80376572  0.70792288    -0.10500
C350        C  0.76460812  0.83807377  0.71542002     0.08800
C351        C  0.75740339  0.87845882  0.62946675     0.09900
S352        S  0.74343636  0.80263264  0.60648333    -0.24800
H353        H  0.74671079  0.76816132  0.66866339     0.20100
S354        S  0.77433352  0.85281684  0.75729511    -0.30500
H355        H  0.76817467  0.88832237  0.69526063     0.10400
C356        C  0.72739022  0.89391484  0.61862173     0.03600
C357        C  0.72836955  0.91685566  0.59169889    -0.12800
C358        C  0.75881067  0.92453726  0.57494939    -0.08500
C359        C  0.78896076  0.90868274  0.58631579     0.07100
C360        C  0.78788871  0.88647701  0.61367660    -0.13600
S361        S  0.68786876  0.88429793  0.63913825    -0.30500
H362        H  0.70518764  0.92888900  0.58377184     0.11300
S363        S  0.82958398  0.91417659  0.56673301    -0.27600
H364        H  0.81090331  0.87422647  0.62195461     0.08600
H365        H  0.79092412  0.82342487  0.76808580     0.27000
H366        H  0.66747075  0.90535924  0.61918458     0.21800
H367        H  0.81738490  0.90681124  0.53434261     0.27100
H368        H  0.75954963  0.82848499  0.58852394     0.15900
C369        C  0.16973929  0.72326284  0.34819089    -0.11300
C370        C  0.14894687  0.75177242  0.35054585     0.15200
C371        C  0.15490038  0.77943048  0.32893011     0.02100
C372        C  0.18153743  0.77808617  0.30586295    -0.15700
C373        C  0.20235933  0.74955197  0.30344015    -0.10500
C374        C  0.19612391  0.72167057  0.32483450     0.08800
C375        C  0.12194063  0.75221298  0.37642304     0.09900
S376        S  0.12896401  0.81677613  0.32888131    -0.24800
H377        H  0.18557159  0.79921521  0.28904772     0.20100
S378        S  0.22062825  0.68327179  0.32403750    -0.30500
H379        H  0.16543432  0.70207810  0.36488291     0.10400
C380        C  0.09445451  0.72963597  0.37505973     0.03600
C381        C  0.06964427  0.73082231  0.40021320    -0.12800
C382        C  0.07149596  0.75431698  0.42660342    -0.08500
C383        C  0.09933889  0.77658976  0.42824233     0.07100
C384        C  0.12420844  0.77527580  0.40311152    -0.13600
S385        S  0.09025424  0.70009990  0.34065490    -0.30500
H386        H  0.04831173  0.71379206  0.39901409     0.11300
S387        S  0.10446724  0.80545183  0.46312138    -0.27600
H388        H  0.14570893  0.79207612  0.40425511     0.08600
H389        H  0.25022263  0.69669474  0.30999999     0.27000
H390        H  0.06063297  0.68426914  0.35211772     0.21800
H391        H  0.13633977  0.81801351  0.45381769     0.27100
H392        H  0.09885274  0.80053478  0.33825942     0.15900
C393        C  0.09022989  0.73066107  0.62188914    -0.11300
C394        C  0.11706220  0.75363240  0.62054017     0.15200
C395        C  0.11874907  0.77715979  0.59401266     0.02100
C396        C  0.09366451  0.77699881  0.56904343    -0.15700
C397        C  0.06683797  0.75384707  0.57021840    -0.10500
C398        C  0.06484435  0.73089656  0.59741857     0.08800
C399        C  0.14258485  0.75314388  0.64772015     0.09900
S400        S  0.15239808  0.80784212  0.59246770    -0.24800
H401        H  0.09506693  0.79475398  0.54837039     0.20100
S402        S  0.02957892  0.70281600  0.60353355    -0.30500
H403        H  0.08865322  0.71299340  0.64266081     0.10400
C404        C  0.13502958  0.76528950  0.68018849     0.03600
C405        C  0.15984372  0.76412446  0.70533882    -0.12800
C406        C  0.19225669  0.75180055  0.69838894    -0.08500
C407        C  0.19966122  0.73925978  0.66593529     0.07100
C408        C  0.17475950  0.74015457  0.64094510    -0.13600
S409        S  0.09430322  0.78363836  0.68911811    -0.30500
H410        H  0.15446716  0.77386560  0.73023707     0.11300
S411        S  0.24027966  0.72217680  0.65460970    -0.27600
H412        H  0.18045397  0.73067386  0.61599297     0.08600
H413        H  0.00521427  0.72626320  0.59282299     0.27000
H414        H  0.10125904  0.79301884  0.72257806     0.21800
H415        H  0.25057232  0.71294580  0.68718554     0.27100
H416        H  0.14205391  0.82395795  0.56263009     0.15900
C417        C  0.88280834  0.77945396  0.60421252    -0.11300
C418        C  0.88306328  0.75161894  0.62600525     0.15200
C419        C  0.90518979  0.72457634  0.61925147     0.02100
C420        C  0.92627876  0.72593094  0.59100095    -0.15700
C421        C  0.92691071  0.75425977  0.56962583    -0.10500
C422        C  0.90470435  0.78135141  0.57661686     0.08800
C423        C  0.85885134  0.75098228  0.65453343     0.09900
S424        S  0.90838742  0.68799758  0.64608542    -0.24800
H425        H  0.94317365  0.70498791  0.58637149     0.20100
S426        S  0.90196182  0.81843844  0.55070964    -0.30500
H427        H  0.86540630  0.79999978  0.60884869     0.10400
C428        C  0.86019817  0.77512259  0.68063026     0.03600
C429        C  0.83567000  0.77454943  0.70610323    -0.12800
C430        C  0.81000945  0.75016634  0.70619284    -0.08500
C431        C  0.80903482  0.72566614  0.68037731     0.07100
C432        C  0.83339509  0.72638026  0.65490530    -0.13600
S433        S  0.89370156  0.80601321  0.68211159    -0.30500
H434        H  0.83638179  0.79308470  0.72610509     0.11300
S435        S  0.77714249  0.69320221  0.67801299    -0.27600
H436        H  0.83218728  0.70791915  0.63482633     0.08600
H437        H  0.93312708  0.83093574  0.56232349     0.27000
H438        H  0.88296083  0.82249613  0.71157235     0.21800
H439        H  0.75131526  0.71090339  0.69451784     0.27100
H440        H  0.90062453  0.70481202  0.67626749     0.15900
C441        C  0.86299814  0.76132993  0.30953731    -0.11300
C442        C  0.85403790  0.75282817  0.34264590     0.15200
C443        C  0.82006877  0.74513759  0.35015436     0.02100
C444        C  0.79581304  0.74656581  0.32463486    -0.15700
C445        C  0.80469770  0.75518095  0.29155741    -0.10500
C446        C  0.83870189  0.76272800  0.28395272     0.08800
C447        C  0.88021895  0.75375165  0.36920936     0.09900
S448        S  0.80610540  0.73310817  0.39168948    -0.24800
H449        H  0.76982184  0.74051228  0.33051342     0.20100
S450        S  0.85264655  0.77494281  0.24244902    -0.30500
H451        H  0.88899236  0.76752457  0.30377172     0.10400
C452        C  0.90537032  0.72878787  0.37144775     0.03600
C453        C  0.92860117  0.72982125  0.39813377    -0.12800
C454        C  0.92721281  0.75532764  0.42270165    -0.08500
C455        C  0.90172769  0.78022189  0.42030030     0.07100
C456        C  0.87891986  0.77940414  0.39341103    -0.13600
S457        S  0.90724326  0.69508798  0.34090656    -0.30500
H458        H  0.94807646  0.71077108  0.39978163     0.11300
S459        S  0.89544158  0.81238667  0.45168804    -0.27600
H460        H  0.85930419  0.79837271  0.39184063     0.08600
H461        H  0.82211109  0.78945046  0.23180880     0.27000
H462        H  0.93511884  0.67822045  0.35495502     0.21800
H463        H  0.90147775  0.79063610  0.47902248     0.27100
H464        H  0.83624086  0.71714134  0.40141548     0.15900
C465        C  0.22361673  0.15395179  0.32720041    -0.11300
C466        C  0.24800860  0.15605785  0.35274517     0.15200
C467        C  0.27195271  0.18242191  0.35197404     0.02100
C468        C  0.27112741  0.20584240  0.32563135    -0.15700
C469        C  0.24637222  0.20406785  0.30040538    -0.10500
C470        C  0.22266172  0.17747739  0.30097229     0.08800
C471        C  0.24863409  0.12949083  0.37891431     0.09900
S472        S  0.30365774  0.18789833  0.38412455    -0.24800
H473        H  0.28932718  0.22628130  0.32530811     0.20100
S474        S  0.19106925  0.17176712  0.26878355    -0.30500
H475        H  0.20547718  0.13345869  0.32747070     0.10400
C476        C  0.22332014  0.12743039  0.40370176     0.03600
C477        C  0.22397880  0.10091191  0.42707226    -0.12800
C478        C  0.24954591  0.07637732  0.42627510    -0.08500
C479        C  0.27483467  0.07855532  0.40120125     0.07100
C480        C  0.27429577  0.10522465  0.37811361    -0.13600
S481        S  0.19073183  0.15913234  0.40608370    -0.30500
H482        H  0.20472415  0.09950360  0.44635632     0.11300
S483        S  0.30715576  0.04710949  0.39591291    -0.27600
H484        H  0.29350593  0.10658783  0.35873909     0.08600
H485        H  0.20982548  0.18623547  0.24244495     0.27000
H486        H  0.17443844  0.14636284  0.43485440     0.21800
H487        H  0.28544213  0.01980472  0.40242589     0.27100
H488        H  0.28453249  0.17430451  0.41067038     0.15900
C489        C  0.21582728  0.12288426  0.59809655    -0.11300
C490        C  0.24255102  0.12408838  0.62126351     0.15200
C491        C  0.26826091  0.09954880  0.61943954     0.02100
C492        C  0.26767762  0.07565574  0.59356893    -0.15700
C493        C  0.24119254  0.07446098  0.56998452    -0.10500
C494        C  0.21463986  0.09822072  0.57281591     0.08800
C495        C  0.24315628  0.15127120  0.64688805     0.09900
S496        S  0.30236056  0.09709028  0.64951988    -0.24800
H497        H  0.28791501  0.05734301  0.59229052     0.20100
S498        S  0.17964601  0.09970945  0.54394577    -0.30500
H499        H  0.19588064  0.14151094  0.59956082     0.10400
C500        C  0.26797087  0.17679208  0.64643172     0.03600
C501        C  0.26898684  0.20055056  0.67256042    -0.12800
C502        C  0.24496926  0.20012737  0.69848292    -0.08500
C503        C  0.22002626  0.17461464  0.69881154     0.07100
C504        C  0.21917030  0.15076939  0.67282987    -0.13600
S505        S  0.29763850  0.17979488  0.61203263    -0.30500
H506        H  0.28811056  0.22006621  0.67251471     0.11300
S507        S  0.18937301  0.17023773  0.73211023    -0.27600
H508        H  0.20021932  0.13105410  0.67331322     0.08600
H509        H  0.16663460  0.06863227  0.55511628     0.27000
H510        H  0.31420879  0.20910929  0.62321383     0.21800
H511        H  0.20866855  0.18561421  0.75754369     0.27100
H512        H  0.28409593  0.10977588  0.67707060     0.15900
C513        C  0.26989481  0.83576880  0.65104963    -0.11300
C514        C  0.24199508  0.85717190  0.64723620     0.15200
C515        C  0.21396285  0.85337705  0.66882941     0.02100
C516        C  0.21457957  0.82855216  0.69387828    -0.15700
C517        C  0.24249583  0.80712682  0.69780703    -0.10500
C518        C  0.27046525  0.81079179  0.67607733     0.08800
C519        C  0.24300518  0.88307396  0.62038889     0.09900
S520        S  0.17675662  0.87937649  0.66583582    -0.24800
H521        H  0.19328746  0.82625842  0.71080061     0.20100
S522        S  0.30657264  0.78317809  0.67952207    -0.30500
H523        H  0.29118458  0.83869332  0.63422403     0.10400
C524        C  0.26300207  0.91226757  0.62376241     0.03600
C525        C  0.26393812  0.93587672  0.59745879    -0.12800
C526        C  0.24499132  0.93105087  0.56794638    -0.08500
C527        C  0.22519577  0.90154914  0.56453932     0.07100
C528        C  0.22428835  0.87804108  0.59084278    -0.13600
S529        S  0.28644130  0.91993934  0.66205288    -0.30500
H530        H  0.27890241  0.95856913  0.60013546     0.11300
S531        S  0.20177566  0.89168948  0.52681931    -0.27600
H532        H  0.20940786  0.85533953  0.58803989     0.08600
H533        H  0.32536008  0.79733207  0.65300434     0.27000
H534        H  0.30066415  0.95090591  0.65220011     0.21800
H535        H  0.22560765  0.90549871  0.50448462     0.27100
H536        H  0.19306503  0.90841403  0.65372778     0.15900
C537        C  0.26418565  0.82004139  0.36064239    -0.11300
C538        C  0.25627785  0.85300163  0.35062280     0.15200
C539        C  0.25007532  0.85987122  0.31626917     0.02100
C540        C  0.25114258  0.83351668  0.29288382    -0.15700
C541        C  0.25789114  0.80032313  0.30304473    -0.10500
C542        C  0.26531777  0.79366044  0.33715189     0.08800
C543        C  0.25522126  0.87966495  0.37660745     0.09900
S544        S  0.24064597  0.90151794  0.30057857    -0.24800
H545        H  0.24577860  0.83873893  0.26662010     0.20100
S546        S  0.27772628  0.75203910  0.35059069    -0.30500
H547        H  0.26966580  0.81515980  0.38691544     0.10400
C548        C  0.22682770  0.88378999  0.39744931     0.03600
C549        C  0.22660747  0.90965579  0.42153433    -0.12800
C550        C  0.25452177  0.93126146  0.42578332    -0.08500
C551        C  0.28330237  0.92633112  0.40508545     0.07100
C552        C  0.28309905  0.90096909  0.38057182    -0.13600
S553        S  0.19064408  0.85641360  0.39287826    -0.30500
H554        H  0.20460172  0.91284739  0.43734498     0.11300
S555        S  0.32066576  0.95199465  0.40767755    -0.27600
H556        H  0.30497514  0.89762368  0.36454447     0.08600
H557        H  0.27888046  0.75897348  0.38531474     0.27000
H558        H  0.17132996  0.87041096  0.41907425     0.21800
H559        H  0.32927748  0.93953787  0.43975080     0.27100
H560        H  0.22623720  0.91432244  0.33022847     0.15900
C561        C  0.77918777  0.38498605  0.11453699    -0.11300
C562        C  0.74769778  0.37629563  0.12795180     0.15200
C563        C  0.71850123  0.39295013  0.11641376     0.02100
C564        C  0.72139039  0.41724482  0.09108355    -0.15700
C565        C  0.75283532  0.42580642  0.07683279    -0.10500
C566        C  0.78224365  0.40978984  0.08964576     0.08800
C567        C  0.74622574  0.34979759  0.15396313     0.09900
S568        S  0.67674566  0.38479022  0.13284105    -0.24800
H569        H  0.69853710  0.42941910  0.08236475     0.20100
S570        S  0.82443789  0.41947265  0.07587919    -0.30500
H571        H  0.80166822  0.37249236  0.12383980     0.10400
C572        C  0.74795102  0.31547051  0.14517691     0.03600
C573        C  0.74619973  0.29099622  0.17051671    -0.12800
C574        C  0.74185958  0.30016362  0.20438316    -0.08500
C575        C  0.73931305  0.33463793  0.21298753     0.07100
C576        C  0.74206469  0.35908959  0.18775314    -0.13600
S577        S  0.75185244  0.30284947  0.10165136    -0.30500
H578        H  0.74843504  0.26462157  0.16401896     0.11300
S579        S  0.73183756  0.34900947  0.25543972    -0.27600
H580        H  0.74026125  0.38552656  0.19434528     0.08600
H581        H  0.82170367  0.45372416  0.08473607     0.27000
H582        H  0.74728804  0.26808910  0.10704967     0.21800
H583        H  0.71323445  0.32068484  0.26588649     0.27100
H584        H  0.68274679  0.35277722  0.14661927     0.15900
C585        C  0.77389372  0.59473069  0.12225761    -0.11300
C586        C  0.75061958  0.62109610  0.11871915     0.15200
C587        C  0.72793030  0.62097523  0.09125424     0.02100
C588        C  0.72844387  0.59405145  0.06853634    -0.15700
C589        C  0.75198888  0.56781913  0.07179528    -0.10500
C590        C  0.77483301  0.56804025  0.09915101     0.08800
C591        C  0.75086346  0.64828286  0.14415256     0.09900
S592        S  0.69827537  0.65461505  0.08330525    -0.24800
H593        H  0.71099608  0.59412175  0.04748690     0.20100
S594        S  0.80408510  0.53371630  0.10587538    -0.30500
H595        H  0.79116527  0.59505212  0.14341375     0.10400
C596        C  0.72425621  0.65237705  0.16729078     0.03600
C597        C  0.72566227  0.67879477  0.19063821    -0.12800
C598        C  0.75294130  0.70144001  0.19115147    -0.08500
C599        C  0.78005288  0.69662547  0.16845938     0.07100
C600        C  0.77870773  0.67003846  0.14540691    -0.13600
S601        S  0.68912893  0.62332715  0.16793835    -0.30500
H602        H  0.70559950  0.68168446  0.20889265     0.11300
S603        S  0.81706962  0.72320633  0.16717517    -0.27600
H604        H  0.79935609  0.66654151  0.12785672     0.08600
H605        H  0.81643151  0.54458078  0.13728387     0.27000
H606        H  0.66943897  0.64116002  0.19139860     0.21800
H607        H  0.80222462  0.75243449  0.18037252     0.27100
H608        H  0.71717157  0.68050356  0.09846098     0.15900
C609        C  0.76774086  0.67607130  0.86453732    -0.11300
C610        C  0.75556474  0.64438654  0.85465719     0.15200
C611        C  0.74506877  0.63936345  0.82104269     0.02100
C612        C  0.74794036  0.66577558  0.79786584    -0.15700
C613        C  0.75975353  0.69760367  0.80781554    -0.10500
C614        C  0.77013540  0.70264652  0.84148179     0.08800
C615        C  0.75467919  0.61701484  0.87991372     0.09900
S616        S  0.72729487  0.60015508  0.80635735    -0.24800
H617        H  0.73971960  0.66189853  0.77210472     0.20100
S618        S  0.78700032  0.74208518  0.85652609    -0.30500
H619        H  0.77585642  0.67995712  0.89032901     0.10400
C620        C  0.77918677  0.59132597  0.88039673     0.03600
C621        C  0.77753457  0.56618358  0.90522477    -0.12800
C622        C  0.75165570  0.56603274  0.92944011    -0.08500
C623        C  0.72713346  0.59196346  0.92868974     0.07100
C624        C  0.72911230  0.61720595  0.90419447    -0.13600
S625        S  0.81300928  0.59109187  0.84993155    -0.30500
H626        H  0.79645311  0.54651251  0.90577178     0.11300
S627        S  0.69414480  0.59556484  0.95959978    -0.27600
H628        H  0.71050278  0.63715402  0.90393606     0.08600
H629        H  0.80046726  0.75280779  0.82558821     0.27000
H630        H  0.82790497  0.56067862  0.86045123     0.21800
H631        H  0.67682192  0.56717752  0.94717782     0.27100
H632        H  0.71273701  0.59051330  0.83715802     0.15900
C633        C  0.77747579  0.31967288  0.85652142    -0.11300
C634        C  0.75078156  0.34282237  0.85712084     0.15200
C635        C  0.72475000  0.34016887  0.83295470     0.02100
C636        C  0.72533774  0.31373856  0.80967762    -0.15700
C637        C  0.75186441  0.29030969  0.80921122    -0.10500
C638        C  0.77848954  0.29358664  0.83281865     0.08800
C639        C  0.75108010  0.36956354  0.88309695     0.09900
S640        S  0.69060173  0.37007771  0.82991274    -0.24800
H641        H  0.70538843  0.31198098  0.79106109     0.20100
S642        S  0.81467285  0.26589752  0.83433084    -0.30500
H643        H  0.79768003  0.32192329  0.87482026     0.10400
C644        C  0.72819992  0.36934683  0.91022960     0.03600
C645        C  0.72921675  0.39552701  0.93393492    -0.12800
C646        C  0.75290035  0.42177057  0.93125919    -0.08500
C647        C  0.77579866  0.42195268  0.90395607     0.07100
C648        C  0.77474983  0.39568984  0.88032027    -0.13600
S649        S  0.69839337  0.33523771  0.91522245    -0.30500
H650        H  0.71189231  0.39527924  0.95499550     0.11300
S651        S  0.80497716  0.45647866  0.89771927    -0.27600
H652        H  0.79198004  0.39569007  0.85918164     0.08600
H653        H  0.80120695  0.23884340  0.81601133     0.27000
H654        H  0.68063381  0.34912032  0.94255842     0.21800
H655        H  0.82065344  0.44376262  0.86860677     0.27100
H656        H  0.70868687  0.39799530  0.84217986     0.15900
C657        C  0.67769174  0.75643925  0.13413492    -0.11300
C658        C  0.64590696  0.74495543  0.14454800     0.15200
C659        C  0.64024047  0.73780382  0.17894936     0.02100
C660        C  0.66664405  0.74198168  0.20202889    -0.15700
C661        C  0.69866990  0.75274861  0.19150034    -0.10500
C662        C  0.70406894  0.76064850  0.15730226     0.08800
C663        C  0.61884950  0.74272652  0.11905785     0.09900
S664        S  0.60003760  0.72397394  0.19534932    -0.24800
H665        H  0.66246310  0.73602881  0.22834495     0.20100
S666        S  0.74398794  0.77748428  0.14335715    -0.30500
H667        H  0.68154602  0.76260631  0.10784374     0.10400
C668        C  0.59827380  0.77063782  0.11186215     0.03600
C669        C  0.57353354  0.76796895  0.08680465    -0.12800
C670        C  0.56870012  0.73785958  0.06857272    -0.08500
C671        C  0.58932445  0.70968919  0.07640299     0.07100
C672        C  0.61435103  0.71261886  0.10119267    -0.13600
S673        S  0.60391363  0.80985263  0.13432839    -0.30500
H674        H  0.55787476  0.78965288  0.08139350     0.11300
S675        S  0.58615969  0.66984656  0.05500810    -0.27600
H676        H  0.63037631  0.69119954  0.10678768     0.08600
H677        H  0.73643349  0.77800418  0.10873755     0.27000
H678        H  0.57756733  0.82762217  0.11855231     0.21800
H679        H  0.55338394  0.66369103  0.06721348     0.27100
H680        H  0.58572803  0.71248943  0.16513233     0.15900
C681        C  0.40637862  0.76504678  0.12163546    -0.11300
C682        C  0.37661974  0.74625892  0.11804809     0.15200
C683        C  0.37161455  0.72683366  0.08862496     0.02100
C684        C  0.39719333  0.72527154  0.06436362    -0.15700
C685        C  0.42713688  0.74382722  0.06809588    -0.10500
C686        C  0.43168888  0.76395058  0.09713899     0.08800
C687        C  0.35191774  0.74671695  0.14596500     0.09900
S688        S  0.33305522  0.70405327  0.08022861    -0.24800
H689        H  0.39330118  0.71020834  0.04190966     0.20100
S690        S  0.46981805  0.78747242  0.10523389    -0.30500
H691        H  0.41028274  0.77999166  0.14416751     0.10400
C692        C  0.34689089  0.71837816  0.16676389     0.03600
C693        C  0.32340619  0.72011759  0.19304535    -0.12800
C694        C  0.30386940  0.74918290  0.19832171    -0.08500
C695        C  0.30930011  0.77773384  0.17756368     0.07100
C696        C  0.33357118  0.77627429  0.15202264    -0.13600
S697        S  0.37090702  0.68022548  0.16050427    -0.30500
H698        H  0.32022874  0.69871676  0.20964641     0.11300
S699        S  0.28593997  0.81660172  0.18158320    -0.27600
H700        H  0.33763249  0.79811728  0.13612783     0.08600
H701        H  0.49165210  0.76293573  0.09194302     0.27000
H702        H  0.35090935  0.65952484  0.18125866     0.21800
H703        H  0.25609673  0.80251641  0.19441979     0.27100
H704        H  0.31165458  0.72461658  0.09954773     0.15900
C705        C  0.39363100  0.72346238  0.87573299    -0.11300
C706        C  0.37578390  0.75390793  0.87336840     0.15200
C707        C  0.38359422  0.78037284  0.89574942     0.02100
C708        C  0.40830300  0.77559548  0.92038575    -0.15700
C709        C  0.42653060  0.74525219  0.92284436    -0.10500
C710        C  0.41933673  0.71908253  0.89959707     0.08800
C711        C  0.34837316  0.75691530  0.84817029     0.09900
S712        S  0.36326862  0.82101947  0.89398800    -0.24800
H713        H  0.41342335  0.79606795  0.93771298     0.20100
S714        S  0.44272965  0.68021403  0.89778751    -0.30500
H715        H  0.38778405  0.70311226  0.85846423     0.10400
C716        C  0.35506976  0.75646287  0.81330802     0.03600
C717        C  0.32811104  0.75795624  0.79046895    -0.12800
C718        C  0.29464900  0.76077074  0.80175542    -0.08500
C719        C  0.28830937  0.76370017  0.83666247     0.07100
C720        C  0.31506310  0.76072402  0.85944292    -0.13600
S721        S  0.39791397  0.75478069  0.79787841    -0.30500
H722        H  0.33295839  0.75628715  0.76368373     0.11300
S723        S  0.24708471  0.77226650  0.85379465    -0.27600
H724        H  0.30997886  0.76192109  0.88623202     0.08600
H725        H  0.47442090  0.69604573  0.90058452     0.27000
H726        H  0.39000207  0.75728322  0.76341584     0.21800
H727        H  0.23389487  0.78783759  0.82483432     0.27100
H728        H  0.35828429  0.82119860  0.85891700     0.15900
C729        C  0.59533962  0.76036061  0.87361742    -0.11300
C730        C  0.62385740  0.74008517  0.87855353     0.15200
C731        C  0.62486875  0.71776339  0.90631271     0.02100
C732        C  0.59729622  0.71615686  0.92832032    -0.15700
C733        C  0.56912015  0.73708471  0.92381672    -0.10500
C734        C  0.56789776  0.75885456  0.89566566     0.08800
C735        C  0.65173183  0.74258684  0.85391355     0.09900
S736        S  0.66079333  0.69142606  0.91563724    -0.24800
H737        H  0.59848463  0.69953113  0.94997039     0.20100
S738        S  0.53157475  0.78443729  0.88587938    -0.30500
H739        H  0.59427586  0.77714982  0.85209007     0.10400
C740        C  0.65763492  0.71704539  0.83004257     0.03600
C741        C  0.68416380  0.72071880  0.80703712    -0.12800
C742        C  0.70554815  0.74899747  0.80785736    -0.08500
C743        C  0.69906815  0.77494311  0.83144128     0.07100
C744        C  0.67207572  0.77153042  0.85393493    -0.13600
S745        S  0.63087450  0.68019806  0.82826490    -0.30500
H746        H  0.68820270  0.70156550  0.78808426     0.11300
S747        S  0.72398198  0.81295270  0.83449317    -0.27600
H748        H  0.66718834  0.79136685  0.87204604     0.08600
H749        H  0.50767585  0.76106468  0.89781232     0.27000
H750        H  0.64918312  0.66297199  0.80328697     0.21800
H751        H  0.75408063  0.79976495  0.82142991     0.27100
H752        H  0.68536004  0.71194872  0.90042491     0.15900
C753        C  0.27969561  0.62125280  0.10100388    -0.11300
C754        C  0.25279006  0.62066845  0.12388848     0.15200
C755        C  0.22749045  0.59582260  0.12053296     0.02100
C756        C  0.22974815  0.57218726  0.09450002    -0.15700
C757        C  0.25653508  0.57278684  0.07128479    -0.10500
C758        C  0.28198476  0.59756976  0.07496825     0.08800
C759        C  0.25159868  0.64673578  0.15048600     0.09900
S760        S  0.19160947  0.59290646  0.14837694    -0.24800
H761        H  0.21017045  0.55321452  0.09224468     0.20100
S762        S  0.31679326  0.60158242  0.04619738    -0.30500
H763        H  0.29911453  0.64032108  0.10353642     0.10400
C764        C  0.25903955  0.63919548  0.18437217     0.03600
C765        C  0.25743068  0.66488643  0.20859525    -0.12800
C766        C  0.24899673  0.69803151  0.19948728    -0.08500
C767        C  0.24085443  0.70528556  0.16559818     0.07100
C768        C  0.24272526  0.67971152  0.14144419    -0.13600
S769        S  0.27188605  0.59723903  0.19647609    -0.30500
H770        H  0.26387552  0.65952372  0.23456016     0.11300
S771        S  0.22756558  0.74639470  0.15160687    -0.27600
H772        H  0.23676532  0.68541504  0.11541037     0.08600
H773        H  0.33150545  0.57109014  0.05679653     0.27000
H774        H  0.27555704  0.60382401  0.23110051     0.21800
H775        H  0.21306853  0.75626626  0.18235568     0.27100
H776        H  0.18977283  0.62731130  0.15651802     0.15900
C777        C  0.27161698  0.35772724  0.17261073    -0.11300
C778        C  0.24642619  0.35731438  0.14782035     0.15200
C779        C  0.22025956  0.33318810  0.14963988     0.02100
C780        C  0.21996621  0.31001401  0.17615253    -0.15700
C781        C  0.24574144  0.30974201  0.20036669    -0.10500
C782        C  0.27124731  0.33460974  0.19917970     0.08800
C783        C  0.24763980  0.38306875  0.12104196     0.09900
S784        S  0.18678657  0.33041140  0.11890554    -0.24800
H785        H  0.20009544  0.29123028  0.17729511     0.20100
S786        S  0.30323811  0.33900721  0.23124669    -0.30500
H787        H  0.29132743  0.37668032  0.17158919     0.10400
C788        C  0.22602208  0.41120503  0.12148432     0.03600
C789        C  0.22774529  0.43479850  0.09525653    -0.12800
C790        C  0.25085479  0.43091932  0.06873205    -0.08500
C791        C  0.27230534  0.40243044  0.06831704     0.07100
C792        C  0.27079787  0.37911980  0.09470518    -0.13600
S793        S  0.19688181  0.41744792  0.15588897    -0.30500
H794        H  0.21147846  0.45670205  0.09569138     0.11300
S795        S  0.30072238  0.39337412  0.03407142    -0.27600
H796        H  0.28717868  0.35725878  0.09431239     0.08600
H797        H  0.28471480  0.32413374  0.25751539     0.27000
H798        H  0.18274569  0.44771211  0.14399564     0.21800
H799        H  0.27852290  0.40467247  0.00882732     0.27100
H800        H  0.20521326  0.34327701  0.09154931     0.15900
C801        C  0.27427286  0.35238170  0.82810678    -0.11300
C802        C  0.24991831  0.35082288  0.85366850     0.15200
C803        C  0.22489693  0.32553160  0.85263594     0.02100
C804        C  0.22477773  0.30241388  0.82610155    -0.15700
C805        C  0.24969508  0.30334761  0.80104781    -0.10500
C806        C  0.27415009  0.32925333  0.80155571     0.08800
C807        C  0.25000542  0.37738754  0.87966891     0.09900
S808        S  0.19279624  0.32121033  0.88452233    -0.24800
H809        H  0.20560567  0.28289828  0.82543243     0.20100
S810        S  0.30475019  0.33519355  0.76846544    -0.30500
H811        H  0.29298699  0.37234405  0.82843204     0.10400
C812        C  0.27481373  0.37832432  0.90500644     0.03600
C813        C  0.27522677  0.40522268  0.92786032    -0.12800
C814        C  0.25085875  0.43092778  0.92631588    -0.08500
C815        C  0.22572214  0.42958319  0.90092367     0.07100
C816        C  0.22557561  0.40279969  0.87805031    -0.13600
S817        S  0.30491277  0.34443849  0.90911497    -0.30500
H818        H  0.29418096  0.40583202  0.94749756     0.11300
S819        S  0.19377441  0.46147034  0.89527478    -0.27600
H820        H  0.20662373  0.40205288  0.85835299     0.08600
H821        H  0.28545473  0.32065634  0.74252881     0.27000
H822        H  0.32383949  0.35870690  0.93550595     0.21800
H823        H  0.21426038  0.48881614  0.90453391     0.27100
H824        H  0.21219738  0.33410401  0.91124420     0.15900
C825        C  0.22146917  0.67024244  0.84680352    -0.11300
C826        C  0.25204473  0.65279946  0.85080062     0.15200
C827        C  0.27934871  0.66053451  0.82926965     0.02100
C828        C  0.27543449  0.68514132  0.80433089    -0.15700
C829        C  0.24538293  0.70364939  0.80124808    -0.10500
C830        C  0.21795237  0.69585258  0.82263288     0.08800
C831        C  0.25432793  0.62621693  0.87711354     0.09900
S832        S  0.32018389  0.64083551  0.83300125    -0.24800
H833        H  0.29642467  0.69058865  0.78772311     0.20100
S834        S  0.17902886  0.71952768  0.82055148    -0.30500
H835        H  0.20048043  0.66400160  0.86310313     0.10400
C836        C  0.25053880  0.63387241  0.91163302     0.03600
C837        C  0.25140754  0.60775552  0.93548320    -0.12800
C838        C  0.25710561  0.57429340  0.92570800    -0.08500
C839        C  0.26220570  0.56678998  0.89127589     0.07100
C840        C  0.26002872  0.59268734  0.86737751    -0.13600
S841        S  0.24567544  0.67698160  0.92549232    -0.30500
H842        H  0.24782642  0.61335920  0.96193605     0.11300
S843        S  0.27046729  0.52483692  0.87579434    -0.27600
H844        H  0.26299064  0.58670542  0.84091312     0.08600
H845        H  0.16205012  0.70227533  0.84645082     0.27000
H846        H  0.24556255  0.67023044  0.96027838     0.21800
H847        H  0.28630351  0.51234855  0.90480725     0.27100
H848        H  0.31907621  0.63673002  0.86816324     0.15900
C849        C  0.38955652  0.28731591  0.11291038    -0.11300
C850        C  0.37367024  0.25699111  0.12175496     0.15200
C851        C  0.38273157  0.22710888  0.10483936     0.02100
C852        C  0.40667941  0.22828564  0.07905237    -0.15700
C853        C  0.42320183  0.25848566  0.07023126    -0.10500
C854        C  0.41469075  0.28831607  0.08809731     0.08800
C855        C  0.34741279  0.25718063  0.14832923     0.09900
S856        S  0.36520797  0.18647483  0.11545758    -0.24800
H857        H  0.41284567  0.20500289  0.06621427     0.20100
S858        S  0.43571959  0.32811230  0.08201064    -0.30500
H859        H  0.38283219  0.31029402  0.12605432     0.10400
C860        C  0.35557030  0.26319276  0.18239022     0.03600
C861        C  0.33001634  0.26198326  0.20678531    -0.12800
C862        C  0.29648307  0.25491142  0.19785644    -0.08500
C863        C  0.28863407  0.24758599  0.16390073     0.07100
C864        C  0.31398772  0.24954272  0.13947954    -0.13600
S865        S  0.39861027  0.27146962  0.19497118    -0.30500
H866        H  0.33598086  0.26700416  0.23292788     0.11300
S867        S  0.24732137  0.23417885  0.15019986    -0.27600
H868        H  0.30782759  0.24421371  0.11341528     0.08600
H869        H  0.46818727  0.31422135  0.08587065     0.27000
H870        H  0.39261758  0.27276488  0.22986632     0.21800
H871        H  0.23676986  0.22074277  0.18120851     0.27100
H872        H  0.36154988  0.19292493  0.15008894     0.15900
C873        C  0.65863030  0.22578329  0.15690177    -0.11300
C874        C  0.63539521  0.25236836  0.15832072     0.15200
C875        C  0.63818568  0.27668104  0.18413914     0.02100
C876        C  0.66468430  0.27435844  0.20733061    -0.15700
C877        C  0.68837978  0.24814118  0.20552596    -0.10500
C878        C  0.68523614  0.22353959  0.17997784     0.08800
C879        C  0.60981088  0.25484414  0.13133813     0.09900
S880        S  0.60937095  0.31159966  0.18848052    -0.24800
H881        H  0.66696162  0.29322996  0.22692752     0.20100
S882        S  0.71486903  0.18944336  0.17456794    -0.30500
H883        H  0.65660303  0.20722309  0.13697469     0.10400
C884        C  0.61473111  0.27597319  0.10323496     0.03600
C885        C  0.59055697  0.27645230  0.07739025    -0.12800
C886        C  0.56177364  0.25586292  0.07896949    -0.08500
C887        C  0.55642576  0.23556316  0.10778694     0.07100
C888        C  0.58070878  0.23489786  0.13337482    -0.13600
S889        S  0.65261462  0.30099525  0.09954708    -0.30500
H890        H  0.59465525  0.29196940  0.05532620     0.11300
S891        S  0.51865795  0.21092470  0.11394013    -0.27600
H892        H  0.57677940  0.21897327  0.15521455     0.08600
H893        H  0.74321896  0.20620859  0.18769098     0.27000
H894        H  0.64307582  0.31863081  0.07031232     0.21800
H895        H  0.49692978  0.23453842  0.09883056     0.27100
H896        H  0.58152364  0.29626729  0.17280308     0.15900
C897        C  0.62307584  0.26650314  0.90449599    -0.11300
C898        C  0.62078691  0.24046906  0.88076453     0.15200
C899        C  0.59451148  0.21657041  0.88343392     0.02100
C900        C  0.57066183  0.21984898  0.90920513    -0.15700
C901        C  0.57271808  0.24609913  0.93291589    -0.10500
C902        C  0.59971948  0.26935389  0.93072525     0.08800
C903        C  0.64684769  0.23867577  0.85422834     0.09900
S904        S  0.58974593  0.18159499  0.85474373    -0.24800
H905        H  0.55010705  0.20184255  0.91056844     0.20100
S906        S  0.60680885  0.30219371  0.96130519    -0.30500
H907        H  0.64358305  0.28449132  0.90279221     0.10400
C908        C  0.64038137  0.24914393  0.82092294     0.03600
C909        C  0.66656162  0.24830523  0.79714093    -0.12800
C910        C  0.69898345  0.23721572  0.80611197    -0.08500
C911        C  0.70494570  0.22561738  0.83922476     0.07100
C912        C  0.67904167  0.22707498  0.86301888    -0.13600
S913        S  0.59917110  0.26452555  0.80907087    -0.30500
H914        H  0.66209898  0.25699745  0.77166820     0.11300
S915        S  0.74468633  0.20815142  0.85264990    -0.27600
H916        H  0.68385909  0.21871781  0.88857067     0.08600
H917        H  0.59693474  0.28258300  0.98914643     0.27000
H918        H  0.60704295  0.27186632  0.77531199     0.21800
H919        H  0.75404990  0.19535166  0.82103171     0.27100
H920        H  0.62400572  0.17834156  0.84629852     0.15900
C921        C  0.32367596  0.24256051  0.85523417    -0.11300
C922        C  0.35638897  0.25045728  0.84437547     0.15200
C923        C  0.36223692  0.25699101  0.80991300     0.02100
C924        C  0.33502313  0.25677810  0.78739882    -0.15700
C925        C  0.30212081  0.24960163  0.79837457    -0.10500
C926        C  0.29664413  0.24138665  0.83259134     0.08800
C927        C  0.38366414  0.25119070  0.86980218     0.09900
S928        S  0.40355703  0.26610168  0.79314668    -0.24800
H929        H  0.33946340  0.26250433  0.76107495     0.20100
S930        S  0.25631105  0.22803054  0.84892320    -0.30500
H931        H  0.31927918  0.23684171  0.88157092     0.10400
C932        C  0.39574187  0.28166267  0.88331865     0.03600
C933        C  0.41952749  0.28086415  0.90953043    -0.12800
C934        C  0.43241560  0.25013927  0.92196547    -0.08500
C935        C  0.42176020  0.21970482  0.90630784     0.07100
C936        C  0.39686428  0.22060351  0.88132340    -0.13600
S937        S  0.38051753  0.32151794  0.86743637    -0.30500
H938        H  0.42780317  0.30439864  0.92055556     0.11300
S939        S  0.43942381  0.17892223  0.91565353    -0.27600
H940        H  0.38810752  0.19721852  0.87021177     0.08600
H941        H  0.24308226  0.21588253  0.81840487     0.27000
H942        H  0.40047707  0.34225663  0.88817627     0.21800
H943        H  0.47301329  0.19021139  0.91282611     0.27100
H944        H  0.42208704  0.24809895  0.81737308     0.15900
loop_ 
_geom_bond_atom_site_label_1 
_geom_bond_atom_site_label_2 
_geom_bond_distance 
_geom_bond_site_symmetry_2 
_ccdc_geom_bond_type 
O1           Ni9   1.915   1_556  S
O1           C11   1.281       .  A
O2           Ni9   1.911       .  S
O2           C12   1.281       .  A
O3           Ni9   1.916   1_556  S
O3           C13   1.280       .  A
O4           Ni9   1.915       .  S
O4           C14   1.281       .  A
O5          Ni10   1.920   1_554  S
O5           C14   1.281       .  A
O6          Ni10   1.919       .  S
O6           C13   1.283       .  A
O7          Ni10   1.924   1_554  S
O7           C12   1.282       .  A
O8          Ni10   1.919       .  S
O8           C11   1.281       .  A
Ni9         Ni10   2.383   1_554  S
C11         C901   1.480       .  S
C12         C853   1.493       .  S
C13         C934   1.494       .  S
C14         C886   1.476       .  S
O15         Ni23   1.921   1_554  S
O15          C25   1.281       .  A
O16         Ni23   1.917       .  S
O16          C26   1.282       .  A
O17         Ni23   1.920       .  S
O17          C27   1.281       .  A
O18         Ni23   1.917   1_554  S
O18          C28   1.281       .  A
O19         Ni24   1.915   1_554  S
O19          C28   1.281       .  A
O20         Ni24   1.920       .  S
O20          C27   1.281       .  A
O21         Ni24   1.913       .  S
O21          C26   1.280       .  A
O22         Ni24   1.913   1_554  S
O22          C25   1.281       .  A
Ni23        Ni24   2.388       .  S
C25         C757   1.484       .  S
C26         C814   1.479       .  S
C27         C838   1.472       .  S
C28         C790   1.476       .  S
O29         Ni37   1.908   1_554  S
O29          C39   1.281       .  A
O30         Ni37   1.907       .  S
O30          C40   1.280       .  A
O31         Ni37   1.914   1_554  S
O31          C41   1.280       .  A
O32         Ni37   1.911       .  S
O32          C42   1.280       .  A
O33         Ni38   1.921       .  S
O33          C42   1.281       .  A
O34         Ni38   1.920   1_554  S
O34          C41   1.281       .  A
O35         Ni38   1.925       .  S
O35          C40   1.283       .  A
O36         Ni38   1.925   1_554  S
O36          C39   1.282       .  A
Ni37        Ni38   2.386       .  S
C39         C670   1.490       .  S
C40         C709   1.487       .  S
C41         C685   1.475       .  S
C42         C733   1.474       .  S
O43         Ni51   1.914   1_556  S
O43          C53   1.280       .  A
O44         Ni51   1.914       .  S
O44          C54   1.282       .  A
O45         Ni51   1.915       .  S
O45          C55   1.281       .  A
O46         Ni51   1.918   1_556  S
O46          C56   1.281       .  A
O47         Ni52   1.915   1_556  S
O47          C56   1.280       .  A
O48         Ni52   1.915       .  S
O48          C55   1.281       .  A
O49         Ni52   1.918       .  S
O49          C54   1.280       .  A
O50         Ni52   1.918   1_556  S
O50          C53   1.282       .  A
Ni51        Ni52   2.385       .  S
C53         C622   1.482       .  S
C54         C565   1.493       .  S
C55         C589   1.476       .  S
C56         C646   1.479       .  S
O57         Ni65   1.915       .  S
O57          C67   1.282       .  A
O58         Ni65   1.917   1_565  S
O58          C68   1.280       .  A
O59         Ni65   1.920       .  S
O59          C69   1.282       .  A
O60         Ni65   1.919   1_565  S
O60          C70   1.282       .  A
O61         Ni66   1.917   1_565  S
O61          C70   1.281       .  A
O62         Ni66   1.916       .  S
O62          C69   1.281       .  A
O63         Ni66   1.921   1_565  S
O63          C68   1.283       .  A
O64         Ni66   1.923       .  S
O64          C67   1.281       .  A
Ni65        Ni66   2.385       .  S
C67         C493   1.488       .  S
C68         C550   1.490       .  S
C69         C478   1.482       .  S
C70         C526   1.477       .  S
O71         Ni79   1.916   1_455  S
O71          C81   1.281       .  A
O72         Ni79   1.919       .  S
O72          C82   1.281       .  A
O73         Ni79   1.921       .  S
O73          C83   1.281       .  A
O74         Ni79   1.919   1_455  S
O74          C84   1.281       .  A
O75         Ni80   1.918   1_455  S
O75          C84   1.282       .  A
O76         Ni80   1.919       .  S
O76          C83   1.282       .  A
O77         Ni80   1.917       .  S
O77          C82   1.281       .  A
O78         Ni80   1.916   1_455  S
O78          C81   1.281       .  A
Ni79        Ni80   2.386       .  S
C81         C397   1.477       .  S
C82         C454   1.482       .  S
C83         C421   1.490       .  S
C84         C382   1.481       .  S
O85         Ni93   1.919   1_545  S
O85          C95   1.282       .  A
O86         Ni93   1.924       .  S
O86          C96   1.284       .  A
O87         Ni93   1.913   1_545  S
O87          C97   1.280       .  A
O88         Ni93   1.912       .  S
O88          C98   1.280       .  A
O89         Ni94   1.926       .  S
O89          C98   1.283       .  A
O90         Ni94   1.923   1_545  S
O90          C97   1.283       .  A
O91         Ni94   1.914       .  S
O91          C96   1.279       .  A
O92         Ni94   1.914   1_545  S
O92          C95   1.280       .  A
Ni93        Ni94   2.383       .  S
C95         C301   1.480       .  S
C96         C358   1.495       .  S
C97         C277   1.488       .  S
C98         C334   1.484       .  S
O99        Ni107   1.922   1_455  S
O99         C109   1.282       .  A
O100       Ni107   1.920       .  S
O100        C110   1.282       .  A
O101       Ni107   1.912       .  S
O101        C111   1.279       .  A
O102       Ni107   1.913   1_455  S
O102        C112   1.279       .  A
O103       Ni108   1.918   1_455  S
O103        C112   1.283       .  A
O104       Ni108   1.920       .  S
O104        C111   1.283       .  A
O105       Ni108   1.913       .  S
O105        C110   1.280       .  A
O106       Ni108   1.912   1_455  S
O106        C109   1.281       .  A
Ni107      Ni108   2.384       .  S
C109        C205   1.485       .  S
C110        C253   1.478       .  S
C111        C229   1.488       .  S
C112        C181   1.487       .  S
C113        C862   1.483       .  S
C113        C114   1.413       .  A
C113        C118   1.401       .  A
C114        C781   1.478       .  S
C114        C115   1.401       .  A
C115        C116   1.403       .  A
C115        H120   1.084       .  S
C116        C214   1.486       .  S
C116        C117   1.416       .  A
C117        C469   1.481       .  S
C117        C118   1.402       .  A
C118        H119   1.084       .  S
C121        C877   1.481       .  S
C121        C122   1.413       .  A
C121        C126   1.402       .  A
C122        C574   1.481       .  S
C122        C123   1.400       .  A
C123        C124   1.400       .  A
C123        H128   1.085       .  S
C124        C238   1.481       .  S
C124        C125   1.414       .  A
C125        C310   1.479       .  S
C125        C126   1.403       .  A
C126        H127   1.084       .  S
C129        C910   1.481       .  S
C129        C130   1.414       .  A
C129        C134   1.401       .  A
C130        C637   1.483       .  S
C130        C131   1.402       .  A
C131        C132   1.401       .  A
C131        H136   1.085       .  S
C132        C262   1.481       .  S
C132        C133   1.416       .  A
C133        C286   1.486       .  S
C133        C134   1.404       .  A
C134        H135   1.085       .  S
C137        C598   1.484       .  S
C137        C138   1.416       .  A
C137        C142   1.402       .  A
C138        C661   1.483       .  S
C138        C139   1.403       .  A
C139        C140   1.403       .  A
C139        H144   1.084       .  S
C140        C325   1.482       .  S
C140        C141   1.412       .  A
C141        C445   1.480       .  S
C141        C142   1.399       .  A
C142        H143   1.084       .  S
C145        C742   1.487       .  S
C145        C146   1.416       .  A
C145        C150   1.405       .  A
C146        C613   1.481       .  S
C146        C147   1.401       .  A
C147        C148   1.401       .  A
C147        H152   1.084       .  S
C148        C430   1.481       .  S
C148        C149   1.414       .  A
C149        C349   1.484       .  S
C149        C150   1.404       .  A
C150        H151   1.084       .  S
C153        C694   1.487       .  S
C153        C154   1.416       .  A
C153        C158   1.404       .  A
C154        C766   1.484       .  S
C154        C155   1.401       .  A
C155        C156   1.404       .  A
C155        H160   1.084       .  S
C156        C373   1.486       .  S
C156        C157   1.416       .  A
C157        C541   1.484       .  S
C157        C158   1.403       .  A
C158        H159   1.084       .  S
C161        C829   1.491       .  S
C161        C162   1.419       .  A
C161        C166   1.405       .  A
C162        C718   1.485       .  S
C162        C163   1.403       .  A
C163        C164   1.402       .  A
C163        H168   1.085       .  S
C164        C517   1.488       .  S
C164        C165   1.412       .  A
C165        C406   1.478       .  S
C165        C166   1.402       .  A
C166        H167   1.084       .  S
C169        C925   1.483       .  S
C169        C170   1.414       .  A
C169        C174   1.404       .  A
C170        C805   1.478       .  S
C170        C171   1.399       .  A
C171        C172   1.399       .  A
C171        H176   1.085       .  S
C172        C190   1.478       .  S
C172        C173   1.414       .  A
C173        C502   1.483       .  S
C173        C174   1.403       .  A
C174        H175   1.084       .  S
C177        C178   1.398       .  A
C177        C182   1.397       .  A
C177        H187   1.084       .  S
C178        C183   1.474       .  S
C178        C179   1.411       .  A
C179        C180   1.400       .  A
C179        S184   1.806       .  S
C180        C181   1.408       .  A
C180        H185   1.084       .  S
C181        C182   1.419       .  A
C182        S186   1.799       .  S
C183        C188   1.408       .  A
C183        C192   1.401       .  A
S184        H200   1.404       .  S
S186        H197   1.408       .  S
C188        C189   1.401       .  A
C188        S193   1.806       .  S
C189        C190   1.403       .  A
C189        H194   1.083       .  S
C190        C191   1.413       .  A
C191        C192   1.397       .  A
C191        S195   1.804       .  S
C192        H196   1.084       .  S
S193        H198   1.407       .  S
S195        H199   1.405       .  S
C201        C202   1.402       .  A
C201        C206   1.399       .  A
C201        H211   1.082       .  S
C202        C207   1.482       .  S
C202        C203   1.411       .  A
C203        C204   1.399       .  A
C203        S208   1.804       .  S
C204        C205   1.408       .  A
C204        H209   1.084       .  S
C205        C206   1.416       .  A
C206        S210   1.801       .  S
C207        C212   1.410       .  A
C207        C216   1.402       .  A
S208        H224   1.406       .  S
S210        H221   1.407       .  S
C212        C213   1.401       .  A
C212        S217   1.807       .  S
C213        C214   1.404       .  A
C213        H218   1.082       .  S
C214        C215   1.417       .  A
C215        C216   1.400       .  A
C215        S219   1.806       .  S
C216        H220   1.084       .  S
S217        H222   1.407       .  S
S219        H223   1.403       .  S
C225        C226   1.401       .  A
C225        C230   1.399       .  A
C225        H235   1.084       .  S
C226        C231   1.482       .  S
C226        C227   1.412       .  A
C227        C228   1.399       .  A
C227        S232   1.804       .  S
C228        C229   1.407       .  A
C228        H233   1.083       .  S
C229        C230   1.420       .  A
C230        S234   1.802       .  S
C231        C236   1.411       .  A
C231        C240   1.403       .  A
S232        H248   1.406       .  S
S234        H245   1.408       .  S
C236        C237   1.402       .  A
C236        S241   1.807       .  S
C237        C238   1.403       .  A
C237        H242   1.083       .  S
C238        C239   1.413       .  A
C239        C240   1.398       .  A
C239        S243   1.804       .  S
C240        H244   1.084       .  S
S241        H246   1.407       .  S
S243        H247   1.405       .  S
C249        C250   1.402       .  A
C249        C254   1.400       .  A
C249        H259   1.083       .  S
C250        C255   1.478       .  S
C250        C251   1.411       .  A
C251        C252   1.398       .  A
C251        S256   1.805       .  S
C252        C253   1.405       .  A
C252        H257   1.084       .  S
C253        C254   1.414       .  A
C254        S258   1.803       .  S
C255        C260   1.409       .  A
C255        C264   1.401       .  A
S256        H272   1.405       .  S
S258        H269   1.407       .  S
C260        C261   1.402       .  A
C260        S265   1.806       .  S
C261        C262   1.403       .  A
C261        H266   1.083       .  S
C262        C263   1.412       .  A
C263        C264   1.398       .  A
C263        S267   1.801       .  S
C264        H268   1.084       .  S
S265        H270   1.407       .  S
S267        H271   1.406       .  S
C273        C274   1.400       .  A
C273        C278   1.399       .  A
C273        H283   1.084       .  S
C274        C279   1.481       .  S
C274        C275   1.413       .  A
C275        C276   1.401       .  A
C275        S280   1.806       .  S
C276        C277   1.407       .  A
C276        H281   1.084       .  S
C277        C278   1.419       .  A
C278        S282   1.803       .  S
C279        C284   1.409       .  A
C279        C288   1.401       .  A
S280        H296   1.405       .  S
S282        H293   1.408       .  S
C284        C285   1.403       .  A
C284        S289   1.806       .  S
C285        C286   1.406       .  A
C285        H290   1.082       .  S
C286        C287   1.416       .  A
C287        C288   1.398       .  A
C287        S291   1.806       .  S
C288        H292   1.084       .  S
S289        H294   1.407       .  S
S291        H295   1.403       .  S
C297        C298   1.401       .  A
C297        C302   1.399       .  A
C297        H307   1.084       .  S
C298        C303   1.478       .  S
C298        C299   1.411       .  A
C299        C300   1.399       .  A
C299        S304   1.805       .  S
C300        C301   1.405       .  A
C300        H305   1.084       .  S
C301        C302   1.416       .  A
C302        S306   1.803       .  S
C303        C308   1.409       .  A
C303        C312   1.402       .  A
S304        H320   1.405       .  S
S306        H317   1.408       .  S
C308        C309   1.401       .  A
C308        S313   1.806       .  S
C309        C310   1.402       .  A
C309        H314   1.083       .  S
C310        C311   1.413       .  A
C311        C312   1.400       .  A
C311        S315   1.804       .  S
C312        H316   1.084       .  S
S313        H318   1.407       .  S
S315        H319   1.405       .  S
C321        C322   1.404       .  A
C321        C326   1.399       .  A
C321        H331   1.084       .  S
C322        C327   1.482       .  S
C322        C323   1.412       .  A
C323        C324   1.399       .  A
C323        S328   1.803       .  S
C324        C325   1.404       .  A
C324        H329   1.083       .  S
C325        C326   1.413       .  A
C326        S330   1.805       .  S
C327        C332   1.408       .  A
C327        C336   1.403       .  A
S328        H344   1.406       .  S
S330        H341   1.405       .  S
C332        C333   1.402       .  A
C332        S337   1.807       .  S
C333        C334   1.407       .  A
C333        H338   1.083       .  S
C334        C335   1.416       .  A
C335        C336   1.401       .  A
C335        S339   1.800       .  S
C336        H340   1.084       .  S
S337        H342   1.407       .  S
S339        H343   1.406       .  S
C345        C346   1.403       .  A
C345        C350   1.402       .  A
C345        H355   1.084       .  S
C346        C351   1.478       .  S
C346        C347   1.412       .  A
C347        C348   1.397       .  A
C347        S352   1.806       .  S
C348        C349   1.403       .  A
C348        H353   1.083       .  S
C349        C350   1.414       .  A
C350        S354   1.804       .  S
C351        C356   1.406       .  A
C351        C360   1.398       .  A
S352        H368   1.402       .  S
S354        H365   1.406       .  S
C356        C357   1.404       .  A
C356        S361   1.806       .  S
C357        C358   1.411       .  A
C357        H362   1.082       .  S
C358        C359   1.424       .  A
C359        C360   1.399       .  A
C359        S363   1.801       .  S
C360        H364   1.084       .  S
S361        H366   1.407       .  S
S363        H367   1.404       .  S
C369        C370   1.403       .  A
C369        C374   1.400       .  A
C369        H379   1.084       .  S
C370        C375   1.484       .  S
C370        C371   1.413       .  A
C371        C372   1.399       .  A
C371        S376   1.804       .  S
C372        C373   1.405       .  A
C372        H377   1.083       .  S
C373        C374   1.416       .  A
C374        S378   1.807       .  S
C375        C380   1.410       .  A
C375        C384   1.403       .  A
S376        H392   1.406       .  S
S378        H389   1.403       .  S
C380        C381   1.403       .  A
C380        S385   1.807       .  S
C381        C382   1.404       .  A
C381        H386   1.083       .  S
C382        C383   1.414       .  A
C383        C384   1.404       .  A
C383        S387   1.808       .  S
C384        H388   1.082       .  S
S385        H390   1.407       .  S
S387        H391   1.407       .  S
C393        C394   1.401       .  A
C393        C398   1.398       .  A
C393        H403   1.084       .  S
C394        C399   1.478       .  S
C394        C395   1.409       .  A
C395        C396   1.403       .  A
C395        S400   1.806       .  S
C396        C397   1.405       .  A
C396        H401   1.083       .  S
C397        C398   1.414       .  A
C398        S402   1.803       .  S
C399        C404   1.409       .  A
C399        C408   1.402       .  A
S400        H416   1.407       .  S
S402        H413   1.407       .  S
C404        C405   1.401       .  A
C404        S409   1.806       .  S
C405        C406   1.402       .  A
C405        H410   1.083       .  S
C406        C407   1.412       .  A
C407        C408   1.399       .  A
C407        S411   1.804       .  S
C408        H412   1.084       .  S
S409        H414   1.407       .  S
S411        H415   1.404       .  S
C417        C418   1.403       .  A
C417        C422   1.400       .  A
C417        H427   1.084       .  S
C418        C423   1.485       .  S
C418        C419   1.412       .  A
C419        C420   1.400       .  A
C419        S424   1.804       .  S
C420        C421   1.408       .  A
C420        H425   1.083       .  S
C421        C422   1.417       .  A
C422        S426   1.798       .  S
C423        C428   1.412       .  A
C423        C432   1.403       .  A
S424        H440   1.406       .  S
S426        H437   1.408       .  S
C428        C429   1.403       .  A
C428        S433   1.807       .  S
C429        C430   1.403       .  A
C429        H434   1.083       .  S
C430        C431   1.413       .  A
C431        C432   1.399       .  A
C431        S435   1.806       .  S
C432        H436   1.084       .  S
S433        H438   1.407       .  S
S435        H439   1.405       .  S
C441        C442   1.403       .  A
C441        C446   1.400       .  A
C441        H451   1.083       .  S
C442        C447   1.479       .  S
C442        C443   1.412       .  A
C443        C444   1.397       .  A
C443        S448   1.804       .  S
C444        C445   1.402       .  A
C444        H449   1.083       .  S
C445        C446   1.413       .  A
C446        S450   1.804       .  S
C447        C452   1.408       .  A
C447        C456   1.401       .  A
S448        H464   1.406       .  S
S450        H461   1.405       .  S
C452        C453   1.403       .  A
C452        S457   1.807       .  S
C453        C454   1.407       .  A
C453        H458   1.082       .  S
C454        C455   1.416       .  A
C455        C456   1.398       .  A
C455        S459   1.801       .  S
C456        H460   1.084       .  S
S457        H462   1.407       .  S
S459        H463   1.407       .  S
C465        C466   1.403       .  A
C465        C470   1.399       .  A
C465        H475   1.085       .  S
C466        C471   1.480       .  S
C466        C467   1.412       .  A
C467        C468   1.399       .  A
C467        S472   1.803       .  S
C468        C469   1.403       .  A
C468        H473   1.085       .  S
C469        C470   1.412       .  A
C470        S474   1.802       .  S
C471        C476   1.408       .  A
C471        C480   1.401       .  A
S472        H488   1.406       .  S
S474        H485   1.406       .  S
C476        C477   1.403       .  A
C476        S481   1.806       .  S
C477        C478   1.406       .  A
C477        H482   1.083       .  S
C478        C479   1.416       .  A
C479        C480   1.400       .  A
C479        S483   1.801       .  S
C480        H484   1.084       .  S
S481        H486   1.407       .  S
S483        H487   1.407       .  S
C489        C490   1.403       .  A
C489        C494   1.403       .  A
C489        H499   1.084       .  S
C490        C495   1.483       .  S
C490        C491   1.412       .  A
C491        C492   1.398       .  A
C491        S496   1.805       .  S
C492        C493   1.406       .  A
C492        H497   1.084       .  S
C493        C494   1.418       .  A
C494        S498   1.799       .  S
C495        C500   1.411       .  A
C495        C504   1.402       .  A
S496        H512   1.406       .  S
S498        H509   1.408       .  S
C500        C501   1.402       .  A
C500        S505   1.807       .  S
C501        C502   1.402       .  A
C501        H506   1.083       .  S
C502        C503   1.414       .  A
C503        C504   1.400       .  A
C503        S507   1.804       .  S
C504        H508   1.084       .  S
S505        H510   1.407       .  S
S507        H511   1.405       .  S
C513        C514   1.403       .  A
C513        C518   1.403       .  A
C513        H523   1.083       .  S
C514        C519   1.481       .  S
C514        C515   1.412       .  A
C515        C516   1.400       .  A
C515        S520   1.804       .  S
C516        C517   1.404       .  A
C516        H521   1.083       .  S
C517        C518   1.412       .  A
C518        S522   1.808       .  S
C519        C524   1.409       .  A
C519        C528   1.401       .  A
S520        H536   1.405       .  S
S522        H533   1.406       .  S
C524        C525   1.403       .  A
C524        S529   1.806       .  S
C525        C526   1.404       .  A
C525        H530   1.083       .  S
C526        C527   1.415       .  A
C527        C528   1.400       .  A
C527        S531   1.804       .  S
C528        H532   1.082       .  S
S529        H534   1.407       .  S
S531        H535   1.407       .  S
C537        C538   1.402       .  A
C537        C542   1.403       .  A
C537        H547   1.083       .  S
C538        C543   1.478       .  S
C538        C539   1.412       .  A
C539        C540   1.399       .  A
C539        S544   1.805       .  S
C540        C541   1.403       .  A
C540        H545   1.084       .  S
C541        C542   1.410       .  A
C542        S546   1.804       .  S
C543        C548   1.407       .  A
C543        C552   1.399       .  A
S544        H560   1.404       .  S
S546        H557   1.407       .  S
C548        C549   1.403       .  A
C548        S553   1.807       .  S
C549        C550   1.409       .  A
C549        H554   1.082       .  S
C550        C551   1.420       .  A
C551        C552   1.400       .  A
C551        S555   1.799       .  S
C552        H556   1.084       .  S
S553        H558   1.407       .  S
S555        H559   1.407       .  S
C561        C562   1.400       .  A
C561        C566   1.400       .  A
C561        H571   1.084       .  S
C562        C567   1.474       .  S
C562        C563   1.409       .  A
C563        C564   1.397       .  A
C563        S568   1.808       .  S
C564        C565   1.410       .  A
C564        H569   1.083       .  S
C565        C566   1.421       .  A
C566        S570   1.801       .  S
C567        C572   1.408       .  A
C567        C576   1.401       .  A
S568        H584   1.403       .  S
S570        H581   1.408       .  S
C572        C573   1.400       .  A
C572        S577   1.806       .  S
C573        C574   1.404       .  A
C573        H578   1.081       .  S
C574        C575   1.413       .  A
C575        C576   1.399       .  A
C575        S579   1.804       .  S
C576        H580   1.083       .  S
S577        H582   1.407       .  S
S579        H583   1.406       .  S
C585        C586   1.402       .  A
C585        C590   1.402       .  A
C585        H595   1.083       .  S
C586        C591   1.478       .  S
C586        C587   1.413       .  A
C587        C588   1.398       .  A
C587        S592   1.806       .  S
C588        C589   1.404       .  A
C588        H593   1.084       .  S
C589        C590   1.413       .  A
C590        S594   1.809       .  S
C591        C596   1.409       .  A
C591        C600   1.401       .  A
S592        H608   1.405       .  S
S594        H605   1.407       .  S
C596        C597   1.400       .  A
C596        S601   1.806       .  S
C597        C598   1.405       .  A
C597        H602   1.082       .  S
C598        C599   1.416       .  A
C599        C600   1.398       .  A
C599        S603   1.806       .  S
C600        H604   1.084       .  S
S601        H606   1.407       .  S
S603        H607   1.403       .  S
C609        C610   1.402       .  A
C609        C614   1.399       .  A
C609        H619   1.084       .  S
C610        C615   1.478       .  S
C610        C611   1.412       .  A
C611        C612   1.399       .  A
C611        S616   1.804       .  S
C612        C613   1.403       .  A
C612        H617   1.084       .  S
C613        C614   1.412       .  A
C614        S618   1.802       .  S
C615        C620   1.408       .  A
C615        C624   1.399       .  A
S616        H632   1.405       .  S
S618        H629   1.405       .  S
C620        C621   1.404       .  A
C620        S625   1.806       .  S
C621        C622   1.406       .  A
C621        H626   1.083       .  S
C622        C623   1.416       .  A
C623        C624   1.398       .  A
C623        S627   1.800       .  S
C624        H628   1.082       .  S
S625        H630   1.407       .  S
S627        H631   1.407       .  S
C633        C634   1.402       .  A
C633        C638   1.400       .  A
C633        H643   1.084       .  S
C634        C639   1.480       .  S
C634        C635   1.412       .  A
C635        C636   1.398       .  A
C635        S640   1.804       .  S
C636        C637   1.404       .  A
C636        H641   1.084       .  S
C637        C638   1.416       .  A
C638        S642   1.808       .  S
C639        C644   1.409       .  A
C639        C648   1.402       .  A
S640        H656   1.405       .  S
S642        H653   1.401       .  S
C644        C645   1.402       .  A
C644        S649   1.806       .  S
C645        C646   1.405       .  A
C645        H650   1.082       .  S
C646        C647   1.414       .  A
C647        C648   1.403       .  A
C647        S651   1.809       .  S
C648        H652   1.082       .  S
S649        H654   1.407       .  S
S651        H655   1.407       .  S
C657        C658   1.402       .  A
C657        C662   1.401       .  A
C657        H667   1.083       .  S
C658        C663   1.476       .  S
C658        C659   1.413       .  A
C659        C660   1.400       .  A
C659        S664   1.806       .  S
C660        C661   1.403       .  A
C660        H665   1.084       .  S
C661        C662   1.410       .  A
C662        S666   1.804       .  S
C663        C668   1.405       .  A
C663        C672   1.400       .  A
S664        H680   1.402       .  S
S666        H677   1.406       .  S
C668        C669   1.400       .  A
C668        S673   1.807       .  S
C669        C670   1.410       .  A
C669        H674   1.082       .  S
C670        C671   1.419       .  A
C671        C672   1.401       .  A
C671        S675   1.799       .  S
C672        H676   1.084       .  S
S673        H678   1.407       .  S
S675        H679   1.408       .  S
C681        C682   1.402       .  A
C681        C686   1.398       .  A
C681        H691   1.084       .  S
C682        C687   1.479       .  S
C682        C683   1.413       .  A
C683        C684   1.400       .  A
C683        S688   1.805       .  S
C684        C685   1.403       .  A
C684        H689   1.084       .  S
C685        C686   1.414       .  A
C686        S690   1.804       .  S
C687        C692   1.409       .  A
C687        C696   1.401       .  A
S688        H704   1.406       .  S
S690        H701   1.406       .  S
C692        C693   1.400       .  A
C692        S697   1.806       .  S
C693        C694   1.405       .  A
C693        H698   1.082       .  S
C694        C695   1.417       .  A
C695        C696   1.399       .  A
C695        S699   1.806       .  S
C696        H700   1.084       .  S
S697        H702   1.407       .  S
S699        H703   1.404       .  S
C705        C706   1.403       .  A
C705        C710   1.401       .  A
C705        H715   1.084       .  S
C706        C711   1.481       .  S
C706        C707   1.410       .  A
C707        C708   1.396       .  A
C707        S712   1.804       .  S
C708        C709   1.408       .  A
C708        H713   1.083       .  S
C709        C710   1.418       .  A
C710        S714   1.801       .  S
C711        C716   1.410       .  A
C711        C720   1.402       .  A
S712        H728   1.406       .  S
S714        H725   1.408       .  S
C716        C717   1.402       .  A
C716        S721   1.807       .  S
C717        C718   1.404       .  A
C717        H722   1.083       .  S
C718        C719   1.414       .  A
C719        C720   1.398       .  A
C719        S723   1.803       .  S
C720        H724   1.084       .  S
S721        H726   1.407       .  S
S723        H727   1.406       .  S
C729        C730   1.401       .  A
C729        C734   1.398       .  A
C729        H739   1.084       .  S
C730        C735   1.479       .  S
C730        C731   1.414       .  A
C731        C732   1.401       .  A
C731        S736   1.805       .  S
C732        C733   1.403       .  A
C732        H737   1.084       .  S
C733        C734   1.413       .  A
C734        S738   1.804       .  S
C735        C740   1.407       .  A
C735        C744   1.402       .  A
S736        H752   1.405       .  S
S738        H749   1.407       .  S
C740        C741   1.401       .  A
C740        S745   1.806       .  S
C741        C742   1.406       .  A
C741        H746   1.082       .  S
C742        C743   1.415       .  A
C743        C744   1.400       .  A
C743        S747   1.806       .  S
C744        H748   1.084       .  S
S745        H750   1.407       .  S
S747        H751   1.403       .  S
C753        C754   1.402       .  A
C753        C758   1.400       .  A
C753        H763   1.083       .  S
C754        C759   1.479       .  S
C754        C755   1.411       .  A
C755        C756   1.399       .  A
C755        S760   1.805       .  S
C756        C757   1.407       .  A
C756        H761   1.084       .  S
C757        C758   1.415       .  A
C758        S762   1.799       .  S
C759        C764   1.409       .  A
C759        C768   1.401       .  A
S760        H776   1.405       .  S
S762        H773   1.407       .  S
C764        C765   1.403       .  A
C764        S769   1.806       .  S
C765        C766   1.404       .  A
C765        H770   1.083       .  S
C766        C767   1.413       .  A
C767        C768   1.398       .  A
C767        S771   1.802       .  S
C768        H772   1.084       .  S
S769        H774   1.407       .  S
S771        H775   1.406       .  S
C777        C778   1.401       .  A
C777        C782   1.398       .  A
C777        H787   1.084       .  S
C778        C783   1.475       .  S
C778        C779   1.412       .  A
C779        C780   1.397       .  A
C779        S784   1.805       .  S
C780        C781   1.402       .  A
C780        H785   1.085       .  S
C781        C782   1.412       .  A
C782        S786   1.804       .  S
C783        C788   1.408       .  A
C783        C792   1.401       .  A
S784        H800   1.405       .  S
S786        H797   1.405       .  S
C788        C789   1.402       .  A
C788        S793   1.807       .  S
C789        C790   1.405       .  A
C789        H794   1.082       .  S
C790        C791   1.415       .  A
C791        C792   1.398       .  A
C791        S795   1.803       .  S
C792        H796   1.084       .  S
S793        H798   1.407       .  S
S795        H799   1.406       .  S
C801        C802   1.402       .  A
C801        C806   1.398       .  A
C801        H811   1.084       .  S
C802        C807   1.475       .  S
C802        C803   1.410       .  A
C803        C804   1.397       .  A
C803        S808   1.803       .  S
C804        C805   1.403       .  A
C804        H809   1.084       .  S
C805        C806   1.412       .  A
C806        S810   1.804       .  S
C807        C812   1.406       .  A
C807        C816   1.400       .  A
S808        H824   1.406       .  S
S810        H821   1.405       .  S
C812        C813   1.401       .  A
C812        S817   1.805       .  S
C813        C814   1.406       .  A
C813        H818   1.082       .  S
C814        C815   1.417       .  A
C815        C816   1.398       .  A
C815        S819   1.804       .  S
C816        H820   1.084       .  S
S817        H822   1.407       .  S
S819        H823   1.403       .  S
C825        C826   1.405       .  A
C825        C830   1.404       .  A
C825        H835   1.083       .  S
C826        C831   1.487       .  S
C826        C827   1.413       .  A
C827        C828   1.399       .  A
C827        S832   1.803       .  S
C828        C829   1.405       .  A
C828        H833   1.083       .  S
C829        C830   1.414       .  A
C830        S834   1.808       .  S
C831        C836   1.412       .  A
C831        C840   1.404       .  A
S832        H848   1.406       .  S
S834        H845   1.407       .  S
C836        C837   1.404       .  A
C836        S841   1.807       .  S
C837        C838   1.402       .  A
C837        H842   1.083       .  S
C838        C839   1.414       .  A
C839        C840   1.401       .  A
C839        S843   1.805       .  S
C840        H844   1.084       .  S
S841        H846   1.407       .  S
S843        H847   1.402       .  S
C849        C850   1.402       .  A
C849        C854   1.402       .  A
C849        H859   1.084       .  S
C850        C855   1.482       .  S
C850        C851   1.410       .  A
C851        C852   1.397       .  A
C851        S856   1.805       .  S
C852        C853   1.409       .  A
C852        H857   1.083       .  S
C853        C854   1.421       .  A
C854        S858   1.801       .  S
C855        C860   1.410       .  A
C855        C864   1.403       .  A
S856        H872   1.406       .  S
S858        H869   1.408       .  S
C860        C861   1.403       .  A
C860        S865   1.806       .  S
C861        C862   1.403       .  A
C861        H866   1.083       .  S
C862        C863   1.413       .  A
C863        C864   1.399       .  A
C863        S867   1.804       .  S
C864        H868   1.084       .  S
S865        H870   1.407       .  S
S867        H871   1.405       .  S
C873        C874   1.402       .  A
C873        C878   1.399       .  A
C873        H883   1.084       .  S
C874        C879   1.477       .  S
C874        C875   1.412       .  A
C875        C876   1.399       .  A
C875        S880   1.804       .  S
C876        C877   1.404       .  A
C876        H881   1.084       .  S
C877        C878   1.413       .  A
C878        S882   1.805       .  S
C879        C884   1.409       .  A
C879        C888   1.400       .  A
S880        H896   1.404       .  S
S882        H893   1.405       .  S
C884        C885   1.403       .  A
C884        S889   1.805       .  S
C885        C886   1.404       .  A
C885        H890   1.083       .  S
C886        C887   1.415       .  A
C887        C888   1.399       .  A
C887        S891   1.803       .  S
C888        H892   1.084       .  S
S889        H894   1.407       .  S
S891        H895   1.407       .  S
C897        C898   1.401       .  A
C897        C902   1.398       .  A
C897        H907   1.083       .  S
C898        C903   1.478       .  S
C898        C899   1.411       .  A
C899        C900   1.400       .  A
C899        S904   1.805       .  S
C900        C901   1.406       .  A
C900        H905   1.084       .  S
C901        C902   1.415       .  A
C902        S906   1.803       .  S
C903        C908   1.409       .  A
C903        C912   1.400       .  A
S904        H920   1.405       .  S
S906        H917   1.407       .  S
C908        C909   1.404       .  A
C908        S913   1.806       .  S
C909        C910   1.404       .  A
C909        H914   1.083       .  S
C910        C911   1.412       .  A
C911        C912   1.397       .  A
C911        S915   1.801       .  S
C912        H916   1.084       .  S
S913        H918   1.407       .  S
S915        H919   1.405       .  S
C921        C922   1.402       .  A
C921        C926   1.398       .  A
C921        H931   1.084       .  S
C922        C927   1.478       .  S
C922        C923   1.412       .  A
C923        C924   1.400       .  A
C923        S928   1.804       .  S
C924        C925   1.404       .  A
C924        H929   1.084       .  S
C925        C926   1.414       .  A
C926        S930   1.804       .  S
C927        C932   1.406       .  A
C927        C936   1.398       .  A
S928        H944   1.405       .  S
S930        H941   1.405       .  S
C932        C933   1.404       .  A
C932        S937   1.806       .  S
C933        C934   1.411       .  A
C933        H938   1.082       .  S
C934        C935   1.422       .  A
C935        C936   1.399       .  A
C935        S939   1.802       .  S
C936        H940   1.084       .  S
S937        H942   1.406       .  S
S939        H943   1.408       .  S
