geometry optimzed in LAMMPS
_audit_creation_date              2020-12-01 
_audit_creation_method            'lammps2cif' 
_symmetry_space_group_name_H-M    'P1' 
_symmetry_Int_Tables_number       1 
_symmetry_cell_setting            triclinic 
loop_ 
_symmetry_equiv_pos_as_xyz 
  x,y,z 
_cell_length_a                    29.54431447 
_cell_length_b                    28.844910378894536 
_cell_length_c                    80.41848926830953 
_cell_angle_alpha                 89.79326349170915 
_cell_angle_beta                  89.5595983355512 
_cell_angle_gamma                 120.25700228130867 
loop_ 
_atom_site_label 
_atom_site_type_symbol 
_atom_site_fract_x 
_atom_site_fract_y 
_atom_site_fract_z 
_atom_site_charge 
Zn1        Zn  0.17340648  0.33984753  0.35516170     1.49700
Zn2        Zn  0.13513879  0.37503861  0.38328183     1.49400
Zn3        Zn  0.13341033  0.26280397  0.38312585     1.49100
Zn4        Zn  0.24361597  0.37357927  0.38356393     1.49500
O5          O  0.17128759  0.33761445  0.37812902    -1.84300
O6          O  0.17933021  0.40599203  0.34653090    -0.74900
O7          O  0.07423040  0.32688306  0.39820267    -0.74700
O8          O  0.11158006  0.21925249  0.36159689    -0.74200
O9          O  0.11170417  0.39441254  0.36154243    -0.74900
O10         O  0.10957839  0.28131629  0.34595761    -0.74500
O11         O  0.07247831  0.24905935  0.39763574    -0.75100
O12         O  0.25625877  0.32271613  0.39718016    -0.74500
O13         O  0.18331652  0.43841859  0.39728440    -0.75200
O14         O  0.17922372  0.24619970  0.39719686    -0.74600
O15         O  0.25673250  0.43456105  0.39823484    -0.75100
O16         O  0.28898886  0.39974127  0.36246132    -0.75000
O17         O  0.23249324  0.33467858  0.34638953    -0.74800
C18         C  0.13782609  0.40819170  0.34787711     0.77000
C19         C  0.05503542  0.27841251  0.40318038     0.77500
C20         C  0.10078064  0.23403437  0.34791860     0.76500
C21         C  0.22656726  0.27418212  0.40192389     0.76800
C22         C  0.22934867  0.45518614  0.40280875     0.78000
C23         C  0.27746896  0.37491664  0.34864794     0.77000
Zn24       Zn  0.03968515  0.46646159  0.25332547     1.49700
Zn25       Zn  0.03910076  0.07408713  0.25341950     1.49400
Zn26       Zn  0.42928467  0.46535388  0.25344442     1.49100
Zn27       Zn  0.00367704  0.50518091  0.28256206     1.49500
O28         O  0.00255770  0.50339357  0.25942772    -1.84300
O29         O  0.09406205  0.00590551  0.23793433    -0.74900
O30         O  0.49239953  0.08628136  0.23775018    -0.74700
O31         O  0.41929059  0.40610425  0.23849869    -0.74200
O32         O  0.09614293  0.08382363  0.23803490    -0.74900
O33         O  0.49238957  0.40188793  0.23946859    -0.74500
O34         O  0.41672603  0.00910340  0.23941000    -0.75100
O35         O  0.43960298  0.50048398  0.29157708    -0.74500
O36         O  0.06588407  0.12745678  0.27293014    -0.75200
O37         O  0.38368846  0.43800556  0.27450737    -0.74600
O38         O  0.03536739  0.06780546  0.29353393    -0.75100
O39         O  0.01440228  0.44974960  0.29248036    -0.75000
O40         O  0.06884707  0.44767417  0.27380080    -0.74800
C41         C  0.11115658  0.05296866  0.23212278     0.77000
C42         C  0.44510525  0.05617946  0.23339989     0.77500
C43         C  0.44692333  0.38604417  0.23367890     0.76500
C44         C  0.39461932  0.46106944  0.28863296     0.76800
C45         C  0.05982461  0.11563698  0.28840663     0.78000
C46         C  0.04971841  0.43916638  0.28854374     0.77000
C47         C  0.16883428  0.33800996  0.81369237     0.45300
H48         H  0.16857626  0.33642715  0.82745822    -0.03700
C49         C  0.16937143  0.33978555  0.78138102     0.45400
H50         H  0.16920478  0.33962859  0.76755200    -0.03700
C51         C  0.13835470  0.36539683  0.80613836    -0.17400
C52         C  0.22613981  0.36991204  0.80555366    -0.17100
C53         C  0.14150788  0.28018092  0.80557305    -0.17500
C54         C  0.13980985  0.36535287  0.78902743    -0.17500
C55         C  0.22421598  0.37019634  0.78845160    -0.17100
C56         C  0.14404667  0.28331908  0.78856735    -0.17400
C57         C  0.49683628  0.49827863  0.82474215     0.45300
H58         H  0.49661388  0.49750961  0.81097096    -0.03700
C59         C  0.49942342  0.00324993  0.85739727     0.45400
H60         H  0.49983673  0.00537894  0.87120699    -0.03700
C61         C  0.02308686  0.05877329  0.83212899    -0.17400
C62         C  0.43999662  0.46538364  0.83301268    -0.17100
C63         C  0.02976457  0.47527437  0.83317784    -0.17500
C64         C  0.02044178  0.05908278  0.84916526    -0.17500
C65         C  0.44201635  0.46688484  0.85011249    -0.17100
C66         C  0.03035281  0.47972670  0.85021127    -0.17400
C67         C  0.16854957  0.33105889  0.52456289     0.45300
H68         H  0.16757994  0.33287943  0.53835513    -0.03700
C69         C  0.16941791  0.33047615  0.49237199     0.45400
H70         H  0.17005665  0.33003268  0.47860873    -0.03700
C71         C  0.19399573  0.38677951  0.51708057    -0.17400
C72         C  0.19933553  0.30590270  0.51782607    -0.17100
C73         C  0.11415816  0.29938156  0.51731231    -0.17500
C74         C  0.19734937  0.38930752  0.50009607    -0.17500
C75         C  0.19916295  0.30285193  0.50057877    -0.17100
C76         C  0.11147453  0.29893405  0.50020906    -0.17400
C77         C  0.34012109  0.16960284  0.44643196     0.45300
H78         H  0.34165960  0.16800124  0.43264534    -0.03700
C79         C  0.33766181  0.16989426  0.47863931     0.45400
H80         H  0.33673922  0.17021930  0.49239478    -0.03700
C81         C  0.30943395  0.19530462  0.45298239    -0.17400
C82         C  0.31355595  0.11368571  0.45391727    -0.17100
C83         C  0.39436709  0.20039894  0.45397347    -0.17500
C84         C  0.30849525  0.19785984  0.47023468    -0.17500
C85         C  0.30983383  0.11130406  0.47088965    -0.17100
C86         C  0.39585887  0.20073386  0.47110557    -0.17400
Zn87       Zn  0.29468335  0.08926585  0.60173484     1.49700
Zn88       Zn  0.34214899  0.16828900  0.57113935     1.49400
Zn89       Zn  0.30851934  0.20645941  0.60252047     1.49100
Zn90       Zn  0.41010285  0.19381278  0.60267801     1.49500
O91         O  0.33883139  0.16427224  0.59475743    -1.84300
O92         O  0.27171020  0.03855497  0.58206534    -0.74900
O93         O  0.30850329  0.20578296  0.56220894    -0.74700
O94         O  0.25358143  0.16371688  0.61933418    -0.74200
O95         O  0.30634607  0.09733491  0.56114446    -0.74900
O96         O  0.23366676  0.07895670  0.61593667    -0.74500
O97         O  0.28024810  0.23198737  0.58385436    -0.75100
O98         O  0.42783998  0.25558488  0.61760565    -0.74500
O99         O  0.41379410  0.20547952  0.56241808    -0.75200
O100        O  0.35893283  0.26703317  0.61648727    -0.74600
O101        O  0.46445013  0.21673169  0.58409665    -0.75100
O102        O  0.41297563  0.14272068  0.61868963    -0.75000
O103        O  0.33292764  0.07099274  0.61848283    -0.74800
C104        C  0.28007095  0.04967500  0.56658064     0.77000
C105        C  0.28494432  0.22838588  0.56821461     0.77500
C106        C  0.22825328  0.11454776  0.62351959     0.76500
C107        C  0.40294545  0.27836900  0.62252467     0.76800
C108        C  0.45831505  0.22088691  0.56860715     0.78000
C109        C  0.37831668  0.09779180  0.62471764     0.77000
Zn110      Zn  0.07523677  0.03704902  0.71894098     1.49700
Zn111      Zn  0.46568846  0.03460868  0.71935830     1.49400
Zn112      Zn  0.00394162  0.99961000  0.69103771     1.49100
Zn113      Zn  0.46415464  0.42489581  0.71867133     1.49500
O114        O  0.00270229  0.99908968  0.71386067    -1.84300
O115        O  0.08773344  0.09953150  0.73344496    -0.74900
O116        O  0.43599092  0.05070730  0.69866773    -0.74700
O117        O  0.06161770  0.06707754  0.68265268    -0.74200
O118        O  0.01309342  0.10076454  0.73257505    -0.74900
O119        O  0.11900779  0.05698913  0.69707448    -0.74500
O120        O  0.44002905  0.99244382  0.68182646    -0.75100
O121        O  0.44188443  0.38077880  0.69740468    -0.74500
O122        O  0.40892076  0.48935265  0.73441755    -0.75200
O123        O  0.50820105  0.44040909  0.68224378    -0.74600
O124        O  0.40377859  0.40949625  0.73354921    -0.75100
O125        O  0.01028551  0.41043651  0.73255983    -0.75000
O126        O  0.08552198  0.48859386  0.73311890    -0.74800
C127        C  0.05903434  0.11859088  0.73824932     0.77000
C128        C  0.42512623  0.02564308  0.68487695     0.77500
C129        C  0.10507033  0.06887858  0.68343630     0.76500
C130        C  0.46828209  0.39415029  0.68385412     0.76800
C131        C  0.38897100  0.44082244  0.73929104     0.78000
C132        C  0.05653846  0.43996511  0.73790014     0.77000
C133        C  0.33105129  0.16641658  0.15871687     0.45300
H134        H  0.33589441  0.16732447  0.14501077    -0.03700
C135        C  0.32094506  0.16366814  0.19078043     0.45400
H136        H  0.31653755  0.16582572  0.20418852    -0.03700
C137        C  0.27162759  0.13390836  0.16476142    -0.17400
C138        C  0.35942966  0.13904178  0.16820941    -0.17100
C139        C  0.35394893  0.22428161  0.16671562    -0.17500
C140        C  0.26881504  0.13191381  0.18170827    -0.17500
C141        C  0.35340501  0.13854102  0.18555438    -0.17100
C142        C  0.34882266  0.22073133  0.18377414    -0.17400
C143        C  0.49730296  0.00122837  0.14602148     0.45300
H144        H  0.49509463  0.99789493  0.15976894    -0.03700
C145        C  0.50103666  0.00958525  0.11383443     0.45400
H146        H  0.50192114  0.01354287  0.10006262    -0.03700
C147        C  0.46841877  0.44374699  0.13581858    -0.17400
C148        C  0.46832195  0.03099084  0.13892124    -0.17100
C149        C  0.05551100  0.03344240  0.13867667    -0.17500
C150        C  0.47083354  0.45061769  0.11868709    -0.17500
C151        C  0.47210779  0.03476130  0.12193725    -0.17100
C152        C  0.05491301  0.03578462  0.12158464    -0.17400
Zn153      Zn  0.23327867  0.36055468  0.93455813     1.49700
Zn154      Zn  0.16540375  0.33921277  0.90378440     1.49400
Zn155      Zn  0.11470533  0.26249774  0.93334529     1.49100
Zn156      Zn  0.13703629  0.38281393  0.93461675     1.49500
O157        O  0.16275407  0.33635448  0.92715811    -1.84300
O158        O  0.28678326  0.39116775  0.91529097    -0.74900
O159        O  0.14010266  0.27026490  0.89374777    -0.74700
O160        O  0.15081916  0.23951459  0.94916901    -0.74200
O161        O  0.23459960  0.38394282  0.89458399    -0.74900
O162        O  0.23552492  0.30157017  0.94734026    -0.74500
O163        O  0.08899966  0.21301527  0.91328423    -0.75100
O164        O  0.07791986  0.34198392  0.95054184    -0.74500
O165        O  0.12261760  0.36536089  0.89472318    -0.75200
O166        O  0.05760719  0.25687897  0.94810786    -0.74600
O167        O  0.11214569  0.41015014  0.91534023    -0.75100
O168        O  0.18893610  0.43916546  0.94992443    -0.75000
O169        O  0.24861346  0.41409331  0.95251802    -0.74800
C170        C  0.27970736  0.39890512  0.90009041     0.77000
C171        C  0.10676506  0.22335385  0.89837930     0.77500
C172        C  0.19796384  0.25867759  0.95367359     0.76500
C173        C  0.05213485  0.29318326  0.95516515     0.76800
C174        C  0.10612161  0.39509135  0.90020296     0.78000
C175        C  0.22702654  0.44015273  0.95759368     0.77000
Zn176      Zn  0.29015465  0.20429702  0.04816237     1.49700
Zn177      Zn  0.39891311  0.20379071  0.05098331     1.49400
Zn178      Zn  0.28992029  0.09276766  0.05228906     1.49100
Zn179      Zn  0.32789674  0.15888745  0.02218307     1.49500
O180        O  0.32692488  0.16579290  0.04490031    -1.84300
O181        O  0.33482362  0.26971707  0.06185679    -0.74900
O182        O  0.41316899  0.15599994  0.06582130    -0.74700
O183        O  0.23039359  0.08398642  0.06626301    -0.74200
O184        O  0.40706969  0.26429927  0.06519468    -0.74900
O185        O  0.23015818  0.16071954  0.06331329    -0.74500
O186        O  0.33617130  0.08049985  0.06756507    -0.75100
O187        O  0.33266276  0.09603633  0.01623044    -0.74500
O188        O  0.44719476  0.23083866  0.03026084    -0.75200
O189        O  0.26690558  0.04111000  0.03265269    -0.74600
O190        O  0.38727106  0.22040862  0.01189820    -0.75100
O191        O  0.26589745  0.15312254  0.01171667    -0.75000
O192        O  0.26520540  0.21851628  0.02591718    -0.74800
C193        C  0.37901603  0.28523533  0.06862043     0.77000
C194        C  0.38380667  0.10897369  0.07186981     0.77500
C195        C  0.21260916  0.11476268  0.07000641     0.76500
C196        C  0.29392785  0.05001469  0.01932846     0.76800
C197        C  0.43446207  0.23721520  0.01563059     0.78000
C198        C  0.25465231  0.18995973  0.01282888     0.77000
C199        C  0.20812822  0.23392178  0.96801104    -0.06300
C200        C  0.18117526  0.22992789  0.98294948    -0.17400
C201        C  0.19412033  0.21434721  0.99783499     0.10900
C202        C  0.23487269  0.20246958  0.99775523    -0.06200
C203        C  0.26023451  0.20444347  0.98264424    -0.17400
C204        C  0.24739101  0.22008522  0.96782265     0.11000
S205        S  0.15739115  0.21032008  0.01633681    -0.32400
S206        S  0.28267216  0.22203824  0.94918179    -0.32400
H207        H  0.24207075  0.21166923  0.93810724     0.29000
H208        H  0.16077310  0.16802543  0.02381217     0.29000
H209        H  0.15094790  0.24075228  0.98312566     0.19600
H210        H  0.29149805  0.19512376  0.98244513     0.19600
C211        C  0.27685532  0.01053682  0.00592244    -0.06300
C212        C  0.22351392  0.48930401  0.00104452    -0.17400
C213        C  0.20646046  0.46421452  0.98570797     0.10900
C214        C  0.24352737  0.46765990  0.97373500    -0.06200
C215        C  0.29671800  0.98707186  0.97894303    -0.17400
C216        C  0.31337732  0.00982948  0.99461192     0.11000
S217        S  0.13671331  0.42639530  0.98258169    -0.32400
S218        S  0.38183742  0.03802553  0.99938928    -0.32400
H219        H  0.37445470  0.03186828  0.01674096     0.29000
H220        H  0.13774237  0.38072198  0.97704907     0.29000
H221        H  0.19508991  0.48929975  0.00965298     0.19600
H222        H  0.32519483  0.98778350  0.97021133     0.19600
C223        C  0.02137642  0.27976677  0.97068567    -0.06300
C224        C  0.02947263  0.24858246  0.98245504    -0.17400
C225        C  0.00575887  0.23777251  0.99815940     0.10900
C226        C  0.47231818  0.25911769  0.00180389    -0.06200
C227        C  0.46750682  0.29362789  0.99047919    -0.17400
C228        C  0.49076819  0.30388564  0.97467927     0.11000
S229        S  0.01446447  0.19279480  0.01161296    -0.32400
S230        S  0.47930219  0.34594877  0.96074873    -0.32400
H231        H  0.47977030  0.31948959  0.94614531     0.29000
H232        H  0.96075056  0.15938259  0.01517555     0.29000
H233        H  0.05433129  0.23213236  0.97935825     0.19600
H234        H  0.44298721  0.31040506  0.99365707     0.19600
C235        C  0.44693606  0.40740289  0.10582374    -0.06300
C236        C  0.39376567  0.36753793  0.10723800    -0.17400
C237        C  0.36970176  0.32751710  0.09514550     0.10900
C238        C  0.39893912  0.32810133  0.08105075    -0.06200
C239        C  0.45102620  0.36827035  0.07939798    -0.17400
C240        C  0.47518293  0.40784371  0.09134940     0.11000
S241        S  0.30265344  0.27568492  0.09879073    -0.32400
S242        S  0.54323706  0.45527434  0.08778360    -0.32400
H243        H  0.04174088  0.45005524  0.06989782     0.29000
H244        H  0.30878689  0.23346809  0.09272747     0.29000
H245        H  0.37089512  0.36729042  0.11786323     0.19600
H246        H  0.47344009  0.36787815  0.06871651     0.19600
C247        C  0.44687274  0.05635369  0.11104164    -0.06300
C248        C  0.40240447  0.01856664  0.10249267    -0.17400
C249        C  0.38125734  0.03378124  0.08947721     0.10900
C250        C  0.40494544  0.08874339  0.08494916    -0.06200
C251        C  0.44907681  0.12653012  0.09376223    -0.17400
C252        C  0.47087419  0.11114702  0.10646767     0.11000
S253        S  0.32687917  0.98156505  0.07817118    -0.32400
S254        S  0.03213331  0.16322107  0.11472786    -0.32400
H255        H  0.04729635  0.13113493  0.12339142     0.29000
H256        H  0.31190386  0.94091891  0.09028047     0.29000
H257        H  0.38577166  0.97639177  0.10549778     0.19600
H258        H  0.46747010  0.16879898  0.09060566     0.19600
C259        C  0.17390259  0.09818196  0.08355898    -0.06300
C260        C  0.17651939  0.06633211  0.09626305    -0.17400
C261        C  0.13976017  0.04607915  0.10912048     0.10900
C262        C  0.10120027  0.06154750  0.11016635    -0.06200
C263        C  0.10067914  0.09594713  0.09783571    -0.17400
C264        C  0.13578436  0.11371015  0.08440545     0.11000
S265        S  0.13167195  0.48950560  0.11838652    -0.32400
S266        S  0.12836282  0.15214465  0.06791367    -0.32400
H267        H  0.08260377  0.14987827  0.07409909     0.29000
H268        H  0.07889850  0.46579844  0.12285899     0.29000
H269        H  0.20588455  0.05434606  0.09566286     0.19600
H270        H  0.07011219  0.10588096  0.09805869     0.19600
C271        C  0.38716288  0.11243196  0.15960204    -0.06300
C272        C  0.35993483  0.05629906  0.15733754    -0.17400
C273        C  0.38469203  0.02832942  0.15111059     0.10900
C274        C  0.43994530  0.05550296  0.14830111    -0.06200
C275        C  0.46706919  0.11137904  0.15092342    -0.17400
C276        C  0.44156514  0.14012397  0.15544587     0.11000
S277        S  0.34231898  0.95800449  0.14688743    -0.32400
S278        S  0.48255218  0.21209815  0.15681734    -0.32400
H279        H  0.45135077  0.22117727  0.16803535     0.29000
H280        H  0.37206760  0.45007655  0.13502787     0.29000
H281        H  0.31835885  0.03385575  0.16013371     0.19600
H282        H  0.50905944  0.13354290  0.14906020     0.19600
C283        C  0.37949931  0.27899352  0.15761573    -0.06300
C284        C  0.42105508  0.29302189  0.14633423    -0.17400
C285        C  0.45197226  0.34594371  0.13970805     0.10900
C286        C  0.44149788  0.38766991  0.14411082    -0.06200
C287        C  0.39962717  0.37338218  0.15525150    -0.17400
C288        C  0.36780197  0.32031865  0.16142724     0.11000
S289        S  0.50706565  0.35963516  0.12655352    -0.32400
S290        S  0.31033286  0.30853221  0.17297906    -0.32400
H291        H  0.28314071  0.25237106  0.17227633     0.29000
H292        H  0.49461695  0.30615719  0.12430888     0.29000
H293        H  0.43037903  0.26254620  0.14303030     0.19600
H294        H  0.38998054  0.40356912  0.15870217     0.19600
C295        C  0.10836537  0.06052992  0.14765520    -0.06300
C296        C  0.14572261  0.11462246  0.14367538    -0.17400
C297        C  0.19995732  0.13809407  0.14722720     0.10900
C298        C  0.21973533  0.10779111  0.15503398    -0.06200
C299        C  0.18227932  0.05328673  0.15846392    -0.17400
C300        C  0.12771155  0.03088688  0.15598588     0.11000
S301        S  0.24188805  0.20688851  0.14109106    -0.32400
S302        S  0.08578084  0.46197850  0.15933335    -0.32400
H303        H  0.04841069  0.47024616  0.16754114     0.29000
H304        H  0.28294869  0.19950990  0.13558074     0.29000
H305        H  0.13275529  0.13848316  0.13701211     0.19600
H306        H  0.19530805  0.02807273  0.16398801     0.19600
C307        C  0.38887202  0.07885598  0.64041142    -0.06300
C308        C  0.36903587  0.02379060  0.64283901    -0.17400
C309        C  0.37519136  0.00396508  0.65801641     0.10900
C310        C  0.40196156  0.04003545  0.67111222    -0.06200
C311        C  0.41813336  0.09441978  0.66906544    -0.17400
C312        C  0.41231684  0.11423430  0.65390327     0.11000
S313        S  0.34386170  0.43607723  0.66077520    -0.32400
S314        S  0.43402278  0.18483121  0.65279538    -0.32400
H315        H  0.47598111  0.19596035  0.64195230     0.29000
H316        H  0.33642760  0.43573495  0.67809118     0.29000
H317        H  0.34882665  0.99607611  0.63282600     0.19600
H318        H  0.43862121  0.12247341  0.67897855     0.19600
C319        C  0.42119880  0.31208624  0.63741743    -0.06300
C320        C  0.38333031  0.30336140  0.64958606    -0.17400
C321        C  0.39749191  0.32588665  0.66533378     0.10900
C322        C  0.45105207  0.35950733  0.66904526    -0.06200
C323        C  0.48898290  0.36866487  0.65674289    -0.17400
C324        C  0.47465559  0.34541249  0.64098948     0.11000
S325        S  0.34500929  0.31188601  0.67971582    -0.32400
S326        S  0.52452442  0.36068953  0.62532071    -0.32400
H327        H  0.56699949  0.40026211  0.63433249     0.29000
H328        H  0.36329667  0.29004189  0.69180294     0.29000
H329        H  0.34210979  0.27698360  0.64703385     0.19600
H330        H  0.53004924  0.39525591  0.65937061     0.19600
C331        C  0.13613045  0.07975261  0.66795059    -0.06300
C332        C  0.19084056  0.10744002  0.66877315    -0.17400
C333        C  0.22142056  0.11774660  0.65440830     0.10900
C334        C  0.19688809  0.10022330  0.63882636    -0.06200
C335        C  0.14241622  0.07126153  0.63793480    -0.17400
C336        C  0.11151213  0.06060061  0.65230184     0.11000
S337        S  0.29169532  0.15349842  0.65678106    -0.32400
S338        S  0.04094188  0.02104443  0.65027913    -0.32400
H339        H  0.03977724  0.00782633  0.63340852     0.29000
H340        H  0.30244273  0.12834841  0.64364105     0.29000
H341        H  0.20989690  0.12133015  0.68065793     0.19600
H342        H  0.12427055  0.05785088  0.62591698     0.19600
C343        C  0.21735051  0.43254258  0.52859868    -0.06300
C344        C  0.25616297  0.43548966  0.53927077    -0.17400
C345        C  0.27636860  0.47301458  0.55197830     0.10900
C346        C  0.25834989  0.00756184  0.55417007    -0.06200
C347        C  0.21944039  0.00550151  0.54382263    -0.17400
C348        C  0.19736283  0.46741107  0.53103997     0.11000
S349        S  0.32764529  0.47494769  0.56451896    -0.32400
S350        S  0.14372963  0.46443668  0.51953008    -0.32400
H351        H  0.12537306  0.41431874  0.51212686     0.29000
H352        H  0.35338063  0.02760266  0.56889538     0.29000
H353        H  0.27078797  0.40801761  0.53768968     0.19600
H354        H  0.20433610  0.03229984  0.54605707     0.19600
C355        C  0.06992755  0.27499119  0.52926484    -0.06300
C356        C  0.05084579  0.30765206  0.53505591    -0.17400
C357        C  0.01678344  0.29220377  0.54868484     0.10900
C358        C  0.50272808  0.24397963  0.55707470    -0.06200
C359        C  0.52092441  0.21079724  0.55110095    -0.17400
C360        C  0.05408171  0.22513342  0.53732601     0.11000
S361        S  0.99391953  0.33681193  0.55513794    -0.32400
S362        S  0.07253612  0.17705708  0.53045856    -0.32400
H363        H  0.10142578  0.20454355  0.51621961     0.29000
H364        H  0.48904647  0.32233204  0.57283877     0.29000
H365        H  0.06356588  0.34612082  0.52918502     0.19600
H366        H  0.50692125  0.17166555  0.55676929     0.19600
C367        C  0.22419662  0.28678784  0.53036052    -0.06300
C368        C  0.19418273  0.26075087  0.54475870    -0.17400
C369        C  0.21282910  0.24234390  0.55751068     0.10900
C370        C  0.26370217  0.25063838  0.55624888    -0.06200
C371        C  0.29483582  0.27783281  0.54235487    -0.17400
C372        C  0.27668728  0.29726020  0.52969207     0.11000
S373        S  0.16887711  0.20677742  0.57462892    -0.32400
S374        S  0.32538619  0.33792148  0.51434532    -0.32400
H375        H  0.29715336  0.36000155  0.50794926     0.29000
H376        H  0.18272956  0.16683680  0.57578075     0.29000
H377        H  0.15528155  0.25436111  0.54633480     0.19600
H378        H  0.33457113  0.28510497  0.54154516     0.19600
C379        C  0.22731058  0.44420191  0.49130756    -0.06300
C380        C  0.19945551  0.46603670  0.48374521    -0.17400
C381        C  0.22414483  0.02186507  0.47815753     0.10900
C382        C  0.27927359  0.05673871  0.47971299    -0.06200
C383        C  0.30703176  0.03398406  0.48663283    -0.17400
C384        C  0.28196095  0.48015998  0.49349711     0.11000
S385        S  0.18162259  0.04263905  0.46923196    -0.32400
S386        S  0.32283803  0.45911681  0.50343839    -0.32400
H387        H  0.36588796  0.51052688  0.50638858     0.29000
H388        H  0.21769131  0.09722355  0.47031330     0.29000
H389        H  0.15746973  0.44217315  0.48316247     0.19600
H390        H  0.34908111  0.05760569  0.48670966     0.19600
C391        C  0.44930326  0.22738300  0.48020088    -0.06300
C392        C  0.49147499  0.27647550  0.47406991    -0.17400
C393        C  0.04393023  0.29701687  0.47887058     0.10900
C394        C  0.05733491  0.27191354  0.49146577    -0.06200
C395        C  0.01495951  0.22292729  0.49771408    -0.17400
C396        C  0.46241632  0.20241701  0.49292420     0.11000
S397        S  0.09370913  0.35345091  0.46736000    -0.32400
S398        S  0.41232730  0.14460679  0.50389245    -0.32400
H399        H  0.44450655  0.14082315  0.51598153     0.29000
H400        H  0.06117402  0.35561138  0.45507152     0.29000
H401        H  0.48318322  0.29920119  0.46548092     0.19600
H402        H  0.02318447  0.20030065  0.50650297     0.19600
C403        C  0.22420517  0.27462519  0.49150147    -0.06300
C404        C  0.21694444  0.22571365  0.49804345    -0.17400
C405        C  0.24665177  0.20236453  0.49256733     0.10900
C406        C  0.28294263  0.22587754  0.47918254    -0.06200
C407        C  0.29029888  0.27491713  0.47265504    -0.17400
C408        C  0.26146020  0.29896539  0.47842615     0.11000
S409        S  0.23606977  0.14178640  0.50272217    -0.32400
S410        S  0.27529897  0.36249100  0.46961558    -0.32400
H411        H  0.31631126  0.36996588  0.45889149     0.29000
H412        H  0.21051796  0.14605825  0.51697588     0.29000
H413        H  0.18834420  0.20605860  0.50792065     0.19600
H414        H  0.31891723  0.29453760  0.46278458     0.19600
C415        C  0.32285819  0.42054643  0.88783590    -0.06300
C416        C  0.35854182  0.40249268  0.88875861    -0.17400
C417        C  0.39430910  0.41264313  0.87585976     0.10900
C418        C  0.39605256  0.44314818  0.86181149    -0.06200
C419        C  0.35824140  0.45867084  0.86049444    -0.17400
C420        C  0.32265559  0.44893270  0.87344811     0.11000
S421        S  0.43268370  0.38052891  0.87680176    -0.32400
S422        S  0.28041205  0.47688556  0.87125226    -0.32400
H423        H  0.27904626  0.48695615  0.88830244     0.29000
H424        H  0.42457165  0.36652760  0.89378061     0.29000
H425        H  0.35626734  0.37755581  0.89920029     0.19600
H426        H  0.35915046  0.48265324  0.84999417     0.19600
C427        C  0.08305186  0.41455824  0.88804188    -0.06300
C428        C  0.10183385  0.46958888  0.88749695    -0.17400
C429        C  0.08985834  0.49241520  0.87424987     0.10900
C430        C  0.05528659  0.45943633  0.86182778    -0.06200
C431        C  0.03867368  0.40459668  0.86187730    -0.17400
C432        C  0.05166721  0.38165785  0.87492742     0.11000
S433        S  0.12799464  0.06716863  0.87313747    -0.32400
S434        S  0.02475818  0.30991258  0.87448849    -0.32400
H435        H  0.02018642  0.30277259  0.89186096     0.29000
H436        H  0.12885004  0.06804050  0.85565350     0.29000
H437        H  0.12912700  0.49548559  0.89681605     0.19600
H438        H  0.51131458  0.37769532  0.85236267     0.19600
C439        C  0.08607349  0.18202154  0.88554504    -0.06300
C440        C  0.03206099  0.14689456  0.88531355    -0.17400
C441        C  0.00902972  0.11152551  0.87221904     0.10900
C442        C  0.04056705  0.10775667  0.85966378    -0.06200
C443        C  0.09418941  0.14560946  0.85924148    -0.17400
C444        C  0.11746338  0.18276518  0.87202984     0.11000
S445        S  0.43966679  0.07681630  0.87113010    -0.32400
S446        S  0.18774492  0.22746948  0.87150047    -0.32400
H447        H  0.19584382  0.21792500  0.85489140     0.29000
H448        H  0.43824784  0.07297329  0.85368980     0.29000
H449        H  0.00725548  0.14915643  0.89490376     0.19600
H450        H  0.11877035  0.14323099  0.84969379     0.19600
C451        C  0.27002406  0.39300133  0.77678890    -0.06300
C452        C  0.30710957  0.37635100  0.77807623    -0.17400
C453        C  0.34606926  0.39035424  0.76593882     0.10900
C454        C  0.34807734  0.42175134  0.75214412    -0.06200
C455        C  0.31234158  0.43964622  0.75108729    -0.17400
C456        C  0.27364018  0.42589995  0.76314694     0.11000
S457        S  0.39219046  0.36766189  0.76892973    -0.32400
S458        S  0.23160172  0.45370817  0.76101745    -0.32400
H459        H  0.24572592  0.47360131  0.74466289     0.29000
H460        H  0.43629096  0.41630456  0.76383211     0.29000
H461        H  0.30494837  0.35087665  0.78830563     0.19600
H462        H  0.31504680  0.46492202  0.74068774     0.19600
C463        C  0.11378157  0.38510884  0.77764133    -0.06300
C464        C  0.07999239  0.34839310  0.76587291    -0.17400
C465        C  0.06098950  0.36469352  0.75258257     0.10900
C466        C  0.07553757  0.41921953  0.75118012    -0.06200
C467        C  0.10672209  0.45535961  0.76346084    -0.17400
C468        C  0.12635514  0.43939983  0.77657298     0.11000
S469        S  0.52126378  0.31361430  0.73760735    -0.32400
S470        S  0.17099564  0.49240421  0.79004427    -0.32400
H471        H  0.19797896  0.46694566  0.79527825     0.29000
H472        H  0.47510395  0.31202654  0.74305522     0.29000
H473        H  0.07009057  0.30694968  0.76678462     0.19600
H474        H  0.11684606  0.49704159  0.76267732     0.19600
C475        C  0.12189018  0.23690257  0.77716239    -0.06300
C476        C  0.06815707  0.21052282  0.77395498    -0.17400
C477        C  0.04619410  0.17191734  0.76145560     0.10900
C478        C  0.07908126  0.16034778  0.75140075    -0.06200
C479        C  0.13282516  0.18653712  0.75493698    -0.17400
C480        C  0.15423988  0.22365156  0.76776535     0.11000
S481        S  0.47487221  0.13465777  0.76079600    -0.32400
S482        S  0.22303909  0.25136980  0.77150867    -0.32400
H483        H  0.22266811  0.26708714  0.78795096     0.29000
H484        H  0.46987869  0.08350498  0.76153043     0.29000
H485        H  0.04311383  0.22039348  0.78120195     0.19600
H486        H  0.15869108  0.17763214  0.74777098     0.19600
C487        C  0.10857044  0.38871837  0.81523869    -0.06300
C488        C  0.05744151  0.37428416  0.81000546    -0.17400
C489        C  0.03296002  0.40404080  0.81436536     0.10900
C490        C  0.05836906  0.44939983  0.82473636    -0.06200
C491        C  0.10949895  0.46371428  0.82997822    -0.17400
C492        C  0.13351583  0.43330698  0.82592618     0.11000
S493        S  0.47020576  0.38312472  0.80547643    -0.32400
S494        S  0.19765203  0.45538833  0.83393945    -0.32400
H495        H  0.18036998  0.40811112  0.84333394     0.29000
H496        H  0.49097152  0.42749749  0.79453686     0.29000
H497        H  0.03695503  0.34046507  0.80176423     0.19600
H498        H  0.13292003  0.99852459  0.83877630     0.19600
C499        C  0.38714085  0.43881272  0.82427742    -0.06300
C500        C  0.37050537  0.47141163  0.81662496    -0.17400
C501        C  0.31780048  0.45103230  0.81171482     0.10900
C502        C  0.27924058  0.39595696  0.81426497    -0.06200
C503        C  0.29602593  0.36322257  0.82186048    -0.17400
C504        C  0.34893269  0.38371925  0.82674182     0.11000
S505        S  0.30017272  0.49677466  0.80255170    -0.32400
S506        S  0.36786989  0.33871683  0.83577151    -0.32400
H507        H  0.31823733  0.29200383  0.83524670     0.29000
H508        H  0.35127905  0.54079185  0.80066198     0.29000
H509        H  0.39854535  0.51384299  0.81525679     0.19600
H510        H  0.26799786  0.32081389  0.82327126     0.19600
C511        C  0.11225911  0.22516596  0.81406298    -0.06300
C512        C  0.13302195  0.19063769  0.81292862    -0.17400
C513        C  0.10308177  0.13519837  0.81687422     0.10900
C514        C  0.05043392  0.11193910  0.82255605    -0.06200
C515        C  0.02941732  0.14630612  0.82349715    -0.17400
C516        C  0.05921483  0.20162678  0.81933737     0.11000
S517        S  0.13560912  0.09684899  0.81557574    -0.32400
S518        S  0.02701497  0.24021351  0.82077005    -0.32400
H519        H  0.06865384  0.28247654  0.82925473     0.29000
H520        H  0.09380810  0.05373454  0.80742540     0.29000
H521        H  0.17295407  0.20676052  0.80860652     0.19600
H522        H  0.98981439  0.13029281  0.82821612     0.19600
C523        C  0.37391878  0.26654495  0.19569581    -0.06300
C524        C  0.42856551  0.30084490  0.19523059    -0.17400
C525        C  0.45412612  0.34031961  0.20740112     0.10900
C526        C  0.42473481  0.34420331  0.22078259    -0.06200
C527        C  0.37058864  0.31008263  0.22117459    -0.17400
C528        C  0.34498907  0.27228893  0.20883849     0.11000
S529        S  0.52347760  0.38563287  0.20471717    -0.32400
S530        S  0.27494432  0.23381588  0.21004081    -0.32400
H531        H  0.26699132  0.26163801  0.22299723     0.29000
H532        H  0.52151792  0.43184686  0.20900999     0.29000
H533        H  0.45148019  0.29686166  0.18535153     0.19600
H534        H  0.34797773  0.31339631  0.23128357     0.19600
C535        C  0.42231234  0.07623674  0.22110340    -0.06300
C536        C  0.37511251  0.07307244  0.22509593    -0.17400
C537        C  0.35170737  0.09332497  0.21448504     0.10900
C538        C  0.37597446  0.11722216  0.19867217    -0.06200
C539        C  0.42564874  0.12319717  0.19568607    -0.17400
C540        C  0.44734842  0.10053680  0.20598993     0.11000
S541        S  0.29485765  0.09122620  0.22366886    -0.32400
S542        S  0.50544592  0.10143583  0.19856417    -0.32400
H543        H  0.00288463  0.06496514  0.20659461     0.29000
H544        H  0.27669678  0.04305182  0.23271112     0.29000
H545        H  0.35735292  0.05627434  0.23710718     0.19600
H546        H  0.44940263  0.14725417  0.18554410     0.19600
C547        C  0.21934246  0.10294998  0.19123483    -0.06300
C548        C  0.19193779  0.12971565  0.19409131    -0.17400
C549        C  0.15821194  0.11613775  0.20771938     0.10900
C550        C  0.14681851  0.07039143  0.21750861    -0.06200
C551        C  0.16643883  0.03735362  0.21218677    -0.17400
C552        C  0.20261716  0.05302451  0.19911495     0.11000
S553        S  0.13532537  0.16188478  0.21239553    -0.32400
S554        S  0.22640710  0.00798739  0.19377354    -0.32400
H555        H  0.26261315  0.03967569  0.18143568     0.29000
H556        H  0.16150971  0.17684617  0.22769910     0.29000
H557        H  0.20161042  0.16537123  0.18684833     0.19600
H558        H  0.15539124  0.00003704  0.21863984     0.19600
C559        C  0.07190188  0.42316631  0.30222260    -0.06300
C560        C  0.12634413  0.45213449  0.30426004    -0.17400
C561        C  0.14903752  0.45031147  0.31932410     0.10900
C562        C  0.11641065  0.41847247  0.33266159    -0.06200
C563        C  0.06204951  0.38809399  0.33035392    -0.17400
C564        C  0.03951431  0.38982969  0.31528968     0.11000
S565        S  0.21928691  0.49146614  0.32161268    -0.32400
S566        S  0.96936093  0.34871952  0.31272858    -0.32400
H567        H  0.95754173  0.32620572  0.32882926     0.29000
H568        H  0.23108486  0.50961471  0.30502481     0.29000
H569        H  0.15081171  0.47891078  0.29439538     0.19600
H570        H  0.03728096  0.36171569  0.34024016     0.19600
C571        C  0.07928104  0.15578482  0.30149753    -0.06300
C572        C  0.05000412  0.18043247  0.30521813    -0.17400
C573        C  0.05261592  0.20230109  0.32091900     0.10900
C574        C  0.08578119  0.20013007  0.33312151    -0.06200
C575        C  0.11523448  0.17573501  0.32931960    -0.17400
C576        C  0.11263754  0.15401742  0.31366054     0.11000
S577        S  0.01089876  0.23013326  0.32489449    -0.32400
S578        S  0.15149255  0.12270382  0.31003706    -0.32400
H579        H  0.15368162  0.12832849  0.29262069     0.29000
H580        H  0.00558199  0.21948372  0.34210742     0.29000
H581        H  0.02211277  0.17915278  0.29628312     0.19600
H582        H  0.14217544  0.17554910  0.33836399     0.19600
C583        C  0.31237539  0.39677557  0.33411715    -0.06300
C584        C  0.33318149  0.45141055  0.33047854    -0.17400
C585        C  0.35556813  0.47261081  0.31494447     0.10900
C586        C  0.35828286  0.43876878  0.30280560    -0.06200
C587        C  0.33724312  0.38407649  0.30640685    -0.17400
C588        C  0.31490383  0.36288601  0.32196439     0.11000
S589        S  0.39548739  0.03722354  0.31411266    -0.32400
S590        S  0.29217622  0.29281632  0.32580588    -0.32400
H591        H  0.30066178  0.29799795  0.34306397     0.29000
H592        H  0.39048065  0.03810592  0.29674889     0.29000
H593        H  0.32947416  0.47724764  0.33947365     0.19600
H594        H  0.34118088  0.35833404  0.29743178     0.19600
C595        C  0.28913253  0.06763658  0.44250074    -0.06300
C596        C  0.24999292  0.06492031  0.43209162    -0.17400
C597        C  0.23228034  0.53280628  0.41855519     0.10900
C598        C  0.25040435  0.49649280  0.41590442    -0.06200
C599        C  0.28787437  0.99526528  0.42701309    -0.17400
C600        C  0.30903992  0.03293476  0.43971177     0.11000
S601        S  0.18859006  0.53888440  0.40422271    -0.32400
S602        S  0.36307329  0.03558850  0.45088701    -0.32400
H603        H  0.38076435  0.08471918  0.45883717     0.29000
H604        H  0.18808829  0.58235238  0.41192845     0.29000
H605        H  0.23628838  0.09299156  0.43396927     0.19600
H606        H  0.30267653  0.96803158  0.42525253     0.19600
C607        C  0.43996071  0.22337574  0.44239278    -0.06300
C608        C  0.46093779  0.19131118  0.43782614    -0.17400
C609        C  0.99516156  0.20686025  0.42443313     0.10900
C610        C  0.01354790  0.25727630  0.41635534    -0.06200
C611        C  0.49342098  0.28780404  0.42103564    -0.17400
C612        C  0.45744456  0.27297721  0.43420983     0.11000
S613        S  0.01653817  0.16029092  0.41857646    -0.32400
S614        S  0.43667906  0.31930052  0.44104210    -0.32400
H615        H  0.47199843  0.36327860  0.43114515     0.29000
H616        H  0.99419551  0.12459164  0.43212648     0.29000
H617        H  0.44750597  0.15366512  0.44427009     0.19600
H618        H  0.50599052  0.32558991  0.41470206     0.19600
C619        C  0.24646550  0.25077635  0.41408765    -0.06300
C620        C  0.21398676  0.22127580  0.42751542    -0.17400
C621        C  0.23223601  0.20233556  0.44044841     0.10900
C622        C  0.28533662  0.21495764  0.44031533    -0.06200
C623        C  0.31619592  0.24206612  0.42621202    -0.17400
C624        C  0.29779555  0.25999557  0.41326900     0.11000
S625        S  0.18555067  0.15985211  0.45605108    -0.32400
S626        S  0.34118128  0.29215745  0.39572607    -0.32400
H627        H  0.30147100  0.27194060  0.38372540     0.29000
H628        H  0.13992824  0.15144386  0.44801388     0.29000
H629        H  0.17419551  0.21376065  0.42797495     0.19600
H630        H  0.35484759  0.24780912  0.42471845     0.19600
Zn631      Zn  0.17167686  0.83619968  0.35604292     1.49700
Zn632      Zn  0.13394399  0.86992100  0.38414836     1.49400
Zn633      Zn  0.13128857  0.75714696  0.38284619     1.49100
Zn634      Zn  0.24194277  0.86901458  0.38408269     1.49500
O635        O  0.16956243  0.83261359  0.37887999    -1.84300
O636        O  0.18161530  0.90471416  0.34824291    -0.74900
O637        O  0.07339911  0.82042992  0.39868736    -0.74700
O638        O  0.11484951  0.71754432  0.36044351    -0.74200
O639        O  0.11233784  0.89166286  0.36257049    -0.74900
O640        O  0.10761797  0.77914275  0.34635366    -0.74500
O641        O  0.06817529  0.74091375  0.39700778    -0.75100
O642        O  0.25307664  0.81767962  0.39774156    -0.74500
O643        O  0.18123321  0.93243773  0.39842905    -0.75200
O644        O  0.17647209  0.74049672  0.39717424    -0.74600
O645        O  0.25581979  0.93085513  0.39873052    -0.75100
O646        O  0.28698656  0.89327934  0.36275095    -0.75000
O647        O  0.22849836  0.82811793  0.34724764    -0.74800
C648        C  0.14027486  0.90725139  0.34927341     0.77000
C649        C  0.05264829  0.77131718  0.40314439     0.77500
C650        C  0.10384716  0.73356110  0.34703546     0.76500
C651        C  0.22340661  0.76889195  0.40223397     0.76800
C652        C  0.22780052  0.95051019  0.40359512     0.78000
C653        C  0.27406414  0.86760531  0.34906825     0.77000
Zn654      Zn  0.03829437  0.96024677  0.25422249     1.49700
Zn655      Zn  0.03604768  0.57736758  0.25231172     1.49400
Zn656      Zn  0.43194266  0.96212519  0.25415669     1.49100
Zn657      Zn  0.99927083  0.99794368  0.28410174     1.49500
O658        O  0.00169919  0.99880596  0.26072061    -1.84300
O659        O  0.09479240  0.51316003  0.23711152    -0.74900
O660        O  0.48739313  0.59025180  0.23788057    -0.74700
O661        O  0.42067818  0.90199306  0.23923376    -0.74200
O662        O  0.09048144  0.58772212  0.23582260    -0.74900
O663        O  0.49391336  0.89802911  0.23927212    -0.74500
O664        O  0.41259478  0.51195220  0.23911676    -0.75100
O665        O  0.44142596  0.97936073  0.29405509    -0.74500
O666        O  0.06373828  0.62983498  0.27188746    -0.75200
O667        O  0.38251906  0.93601675  0.27453184    -0.74600
O668        O  0.05881064  0.57277821  0.29134863    -0.75100
O669        O  0.03079524  0.96110590  0.29418082    -0.75000
O670        O  0.06847830  0.93951464  0.27413664    -0.74800
C671        C  0.10790191  0.55832712  0.23041365     0.77000
C672        C  0.44042870  0.55946749  0.23332374     0.77500
C673        C  0.44798078  0.88205565  0.23394839     0.76500
C674        C  0.39452878  0.95039932  0.28961462     0.76800
C675        C  0.07228152  0.61988603  0.28664855     0.78000
C676        C  0.05846836  0.94164843  0.28949162     0.77000
C677        C  0.17052193  0.83803071  0.81444116     0.45300
H678        H  0.17014917  0.83658770  0.82821010    -0.03700
C679        C  0.17135064  0.83949622  0.78213190     0.45400
H680        H  0.17138993  0.83925830  0.76830151    -0.03700
C681        C  0.14061472  0.86595437  0.80678441    -0.17400
C682        C  0.22796638  0.86925134  0.80633508    -0.17100
C683        C  0.14259959  0.78007471  0.80636470    -0.17500
C684        C  0.14226615  0.86577995  0.78966027    -0.17500
C685        C  0.22615337  0.86926805  0.78924319    -0.17100
C686        C  0.14526755  0.78306559  0.78936234    -0.17400
C687        C  0.49911372  0.99879788  0.82510950     0.45300
H688        H  0.49880323  0.99756787  0.81134152    -0.03700
C689        C  0.49692075  0.50161317  0.85704597     0.45400
H690        H  0.49731327  0.50331514  0.87086191    -0.03700
C691        C  0.02168524  0.55789599  0.83206462    -0.17400
C692        C  0.44237826  0.96588302  0.83342432    -0.17100
C693        C  0.03246384  0.97695625  0.83356866    -0.17500
C694        C  0.01934079  0.55785396  0.84910422    -0.17500
C695        C  0.44454859  0.96801242  0.85050953    -0.17100
C696        C  0.03284281  0.98191536  0.85059157    -0.17400
C697        C  0.16831002  0.83307442  0.52431378     0.45300
H698        H  0.16773742  0.83555846  0.53809445    -0.03700
C699        C  0.16848050  0.83119619  0.49211910     0.45400
H700        H  0.16850015  0.83012015  0.47835657    -0.03700
C701        C  0.19458696  0.88846765  0.51657839    -0.17400
C702        C  0.19797791  0.80664216  0.51766594    -0.17100
C703        C  0.11371865  0.80193204  0.51721460    -0.17500
C704        C  0.19741733  0.89035968  0.49959933    -0.17500
C705        C  0.19743655  0.80288833  0.50043054    -0.17100
C706        C  0.11086676  0.80085751  0.50012105    -0.17400
C707        C  0.33897383  0.66924850  0.44720509     0.45300
H708        H  0.34086076  0.66789992  0.43342028    -0.03700
C709        C  0.33598065  0.66895789  0.47939824     0.45400
H710        H  0.33472780  0.66899564  0.49315900    -0.03700
C711        C  0.30749640  0.69397516  0.45375553    -0.17400
C712        C  0.31289582  0.61328976  0.45454695    -0.17100
C713        C  0.39295777  0.70051354  0.45478804    -0.17500
C714        C  0.30633604  0.69641485  0.47098364    -0.17500
C715        C  0.30890725  0.61046910  0.47152167    -0.17100
C716        C  0.39427096  0.70064761  0.47191003    -0.17400
Zn717      Zn  0.29448614  0.59127821  0.60169177     1.49700
Zn718      Zn  0.34043666  0.66926328  0.57092579     1.49400
Zn719      Zn  0.30750588  0.70826705  0.60238387     1.49100
Zn720      Zn  0.40937002  0.69645862  0.60230100     1.49500
O721        O  0.33791375  0.66614775  0.59455818    -1.84300
O722        O  0.27098534  0.53999350  0.58212437    -0.74900
O723        O  0.30606895  0.70595027  0.56216191    -0.74700
O724        O  0.25337572  0.66563016  0.61936756    -0.74200
O725        O  0.30432868  0.59805538  0.56099592    -0.74900
O726        O  0.23382773  0.58095116  0.61603168    -0.74500
O727        O  0.27808334  0.73260459  0.58376803    -0.75100
O728        O  0.42692172  0.75832364  0.61711802    -0.74500
O729        O  0.41191502  0.70711482  0.56197138    -0.75200
O730        O  0.35794575  0.76966791  0.61615673    -0.74600
O731        O  0.46320917  0.71981443  0.58359584    -0.75100
O732        O  0.41336510  0.64597787  0.61832075    -0.75000
O733        O  0.33355410  0.57394384  0.61840509    -0.74800
C734        C  0.27844758  0.55054494  0.56658702     0.77000
C735        C  0.28244054  0.72849455  0.56814025     0.77500
C736        C  0.22842051  0.61652546  0.62362422     0.76500
C737        C  0.40217433  0.78122112  0.62206227     0.76800
C738        C  0.45668612  0.72343198  0.56810552     0.78000
C739        C  0.37910680  0.60112937  0.62450887     0.77000
Zn740      Zn  0.07403677  0.53846769  0.71874250     1.49700
Zn741      Zn  0.46661262  0.53776334  0.71923652     1.49400
Zn742      Zn  0.00163054  0.50157018  0.69065769     1.49100
Zn743      Zn  0.46581401  0.92315240  0.71889346     1.49500
O744        O  0.00146880  0.50093258  0.71352963    -1.84300
O745        O  0.08715974  0.60054790  0.73358202    -0.74900
O746        O  0.43828787  0.55531005  0.69849578    -0.74700
O747        O  0.06040022  0.56814083  0.68215563    -0.74200
O748        O  0.01274183  0.60215354  0.73309955    -0.74900
O749        O  0.11779694  0.55882199  0.69693396    -0.74500
O750        O  0.43812714  0.49396830  0.68203695    -0.75100
O751        O  0.44455041  0.88030261  0.69734080    -0.74500
O752        O  0.40889809  0.98571761  0.73466988    -0.75200
O753        O  0.51099498  0.94056504  0.68231479    -0.74600
O754        O  0.40483844  0.90639675  0.73389995    -0.75100
O755        O  0.01215401  0.90873251  0.73270691    -0.75000
O756        O  0.08667674  0.98761954  0.73353835    -0.74800
C757        C  0.05870114  0.61954778  0.73868282     0.77000
C758        C  0.42572301  0.52924060  0.68487784     0.77500
C759        C  0.10401176  0.57031140  0.68319676     0.76500
C760        C  0.47081749  0.89434870  0.68374751     0.76800
C761        C  0.38952218  0.93735557  0.73963641     0.78000
C762        C  0.05813283  0.93881811  0.73822546     0.77000
C763        C  0.32840720  0.66702915  0.15770847     0.45300
H764        H  0.33445606  0.66936125  0.14402987    -0.03700
C765        C  0.31509367  0.66133373  0.18971586     0.45400
H766        H  0.30948040  0.66133200  0.20320064    -0.03700
C767        C  0.26838490  0.63547213  0.16313277    -0.17400
C768        C  0.35465653  0.63744669  0.16718614    -0.17100
C769        C  0.35191490  0.72417336  0.16632088    -0.17500
C770        C  0.26376517  0.63231779  0.18002623    -0.17500
C771        C  0.34671958  0.63542825  0.18441272    -0.17100
C772        C  0.34551957  0.71913646  0.18336368    -0.17400
C773        C  0.49408597  0.50018349  0.14515580     0.45300
H774        H  0.49197366  0.49665801  0.15890061    -0.03700
C775        C  0.49774000  0.50908399  0.11298667     0.45400
H776        H  0.49864616  0.51351764  0.09923892    -0.03700
C777        C  0.47119462  0.94470688  0.13675009    -0.17400
C778        C  0.46471449  0.52976015  0.13816482    -0.17100
C779        C  0.05213010  0.53391466  0.13736262    -0.17500
C780        C  0.47365770  0.95134720  0.11963481    -0.17500
C781        C  0.46852523  0.53388881  0.12117422    -0.17100
C782        C  0.05129752  0.53682154  0.12031879    -0.17400
Zn783      Zn  0.23444869  0.86044571  0.93425813     1.49700
Zn784      Zn  0.16696080  0.84012956  0.90345132     1.49400
Zn785      Zn  0.11579329  0.76285999  0.93291462     1.49100
Zn786      Zn  0.13884609  0.88328446  0.93464995     1.49500
O787        O  0.16405215  0.83667907  0.92682536    -1.84300
O788        O  0.28849983  0.89286060  0.91536146    -0.74900
O789        O  0.13965307  0.77104081  0.89312352    -0.74700
O790        O  0.15215168  0.73996608  0.94859272    -0.74200
O791        O  0.23656819  0.88396010  0.89438377    -0.74900
O792        O  0.23708248  0.80092913  0.94636749    -0.74500
O793        O  0.09020026  0.71357595  0.91287047    -0.75100
O794        O  0.07802929  0.84187548  0.94994912    -0.74500
O795        O  0.12586009  0.86871186  0.89480631    -0.75200
O796        O  0.05803167  0.75692698  0.94751076    -0.74600
O797        O  0.11579795  0.91304681  0.91566665    -0.75100
O798        O  0.19007759  0.93773809  0.95047154    -0.75000
O799        O  0.24936599  0.91206598  0.95267750    -0.74800
C800        C  0.28165376  0.90000600  0.90010408     0.77000
C801        C  0.10691849  0.72400656  0.89786370     0.77500
C802        C  0.19941966  0.75853482  0.95287555     0.76500
C803        C  0.05150185  0.79289541  0.95433770     0.76800
C804        C  0.10979552  0.89859439  0.90048481     0.78000
C805        C  0.22781260  0.93778334  0.95805759     0.77000
Zn806      Zn  0.28966818  0.70924016  0.04815880     1.49700
Zn807      Zn  0.39771982  0.70753952  0.05074454     1.49400
Zn808      Zn  0.28842276  0.59687749  0.05185934     1.49100
Zn809      Zn  0.32638878  0.66346700  0.02226093     1.49500
O810        O  0.32584810  0.67007699  0.04495173    -1.84300
O811        O  0.33420918  0.77421629  0.06213580    -0.74900
O812        O  0.41160193  0.65913199  0.06558805    -0.74700
O813        O  0.22850345  0.58833864  0.06556918    -0.74200
O814        O  0.40618473  0.76808263  0.06503359    -0.74900
O815        O  0.22894392  0.66546941  0.06292614    -0.74500
O816        O  0.33418864  0.58398087  0.06722415    -0.75100
O817        O  0.33261043  0.60169074  0.01583264    -0.74500
O818        O  0.44439165  0.73319733  0.02954172    -0.75200
O819        O  0.26613002  0.54618777  0.03188805    -0.74600
O820        O  0.38418939  0.72650664  0.01192098    -0.75100
O821        O  0.26273489  0.65514164  0.01251659    -0.75000
O822        O  0.26585236  0.72387546  0.02580872    -0.74800
C823        C  0.37848045  0.78920392  0.06877516     0.77000
C824        C  0.38186450  0.61202664  0.07156682     0.77500
C825        C  0.21091504  0.61923330  0.06942870     0.76500
C826        C  0.29359395  0.55558819  0.01863004     0.76800
C827        C  0.43116003  0.74041704  0.01506601     0.78000
C828        C  0.25382742  0.69364489  0.01307585     0.77000
C829        C  0.20953279  0.73439542  0.96737098    -0.06300
C830        C  0.17967308  0.72774628  0.98185709    -0.17400
C831        C  0.19230991  0.71373287  0.99705336     0.10900
C832        C  0.23563532  0.70608122  0.99773695    -0.06200
C833        C  0.26423225  0.71080520  0.98313112    -0.17400
C834        C  0.25177519  0.72499952  0.96798681     0.11000
S835        S  0.15202039  0.70642813  0.01495807    -0.32400
S836        S  0.29124668  0.73071447  0.95001943    -0.32400
H837        H  0.25149802  0.71729790  0.93830319     0.29000
H838        H  0.15913046  0.66744592  0.02314739     0.29000
H839        H  0.14739040  0.73550153  0.98146904     0.19600
H840        H  0.29741646  0.70448612  0.98360152     0.19600
C841        C  0.27675143  0.51657961  0.00503730    -0.06300
C842        C  0.22369287  0.98391124  0.00186001    -0.17400
C843        C  0.20679903  0.95993419  0.98637811     0.10900
C844        C  0.24399978  0.96376171  0.97439700    -0.06200
C845        C  0.29642737  0.49202408  0.97817039    -0.17400
C846        C  0.31327596  0.51584339  0.99372096     0.11000
S847        S  0.13712274  0.92346685  0.98300905    -0.32400
S848        S  0.38184676  0.54463151  0.99840264    -0.32400
H849        H  0.37469069  0.53834851  0.01575855     0.29000
H850        H  0.13735743  0.87795130  0.97689944     0.29000
H851        H  0.19531569  0.98397450  0.01047503     0.19600
H852        H  0.32486342  0.49250824  0.96946946     0.19600
C853        C  0.01805392  0.77879116  0.96931019    -0.06300
C854        C  0.02247679  0.74526309  0.98109849    -0.17400
C855        C  0.99750945  0.73500260  0.99658636     0.10900
C856        C  0.46768799  0.75930202  0.00079371    -0.06200
C857        C  0.46274078  0.79236674  0.98890192    -0.17400
C858        C  0.48645474  0.80128766  0.97318898     0.11000
S859        S  0.00204712  0.68741096  0.01004550    -0.32400
S860        S  0.47497751  0.84165454  0.95853747    -0.32400
H861        H  0.47745096  0.81481575  0.94429170     0.29000
H862        H  0.94800633  0.65741434  0.01359364     0.29000
H863        H  0.04591678  0.72698590  0.97826700     0.19600
H864        H  0.43823634  0.80950175  0.99163136     0.19600
C865        C  0.44885300  0.90826404  0.10680765    -0.06300
C866        C  0.39479931  0.87109655  0.10773171    -0.17400
C867        C  0.36978909  0.83229583  0.09533790     0.10900
C868        C  0.39914496  0.83153415  0.08144066    -0.06200
C869        C  0.45226716  0.86922547  0.08032824    -0.17400
C870        C  0.47743619  0.90702927  0.09269203     0.11000
S871        S  0.30123186  0.78396404  0.09831136    -0.32400
S872        S  0.54656580  0.95157561  0.08994956    -0.32400
H873        H  0.04916621  0.94717715  0.07307938     0.29000
H874        H  0.30464732  0.73983182  0.09255190     0.29000
H875        H  0.37196563  0.87214446  0.11817553     0.19600
H876        H  0.47440852  0.86855706  0.06962089     0.19600
C877        C  0.44386994  0.55640374  0.11032910    -0.06300
C878        C  0.39988392  0.51933428  0.10143560    -0.17400
C879        C  0.37937787  0.53557838  0.08847943     0.10900
C880        C  0.40262091  0.59094084  0.08454004    -0.06200
C881        C  0.44638782  0.62800327  0.09364003    -0.17400
C882        C  0.46793369  0.61158069  0.10616812     0.11000
S883        S  0.32568958  0.48435256  0.07668540    -0.32400
S884        S  0.02653570  0.66441414  0.11566324    -0.32400
H885        H  0.04242990  0.63164928  0.12351923     0.29000
H886        H  0.33172830  0.44108521  0.08181227     0.29000
H887        H  0.38273689  0.47698087  0.10427249     0.19600
H888        H  0.46471903  0.67050495  0.09082906     0.19600
C889        C  0.17197441  0.60228428  0.08293736    -0.06300
C890        C  0.17215855  0.56696042  0.09488231    -0.17400
C891        C  0.13477644  0.54572002  0.10751463     0.10900
C892        C  0.09770351  0.56299433  0.10907172    -0.06200
C893        C  0.09931232  0.60047184  0.09754206    -0.17400
C894        C  0.13581305  0.62031546  0.08455148     0.11000
S895        S  0.13957483  0.99306885  0.12107431    -0.32400
S896        S  0.13115670  0.66471188  0.06977670    -0.32400
H897        H  0.17881333  0.70911380  0.07480801     0.29000
H898        H  0.08650298  0.96729483  0.12541586     0.29000
H899        H  0.20007839  0.55315891  0.09385454     0.19600
H900        H  0.06994073  0.61218693  0.09803985     0.19600
C901        C  0.38308362  0.61098086  0.15884555    -0.06300
C902        C  0.35588918  0.55488407  0.15641501    -0.17400
C903        C  0.38081720  0.52693129  0.15026335     0.10900
C904        C  0.43617530  0.55399427  0.14766863    -0.06200
C905        C  0.46337041  0.60966456  0.15067328    -0.17400
C906        C  0.43785943  0.63846142  0.15518121     0.11000
S907        S  0.33860389  0.45662465  0.14595655    -0.32400
S908        S  0.47906524  0.71041730  0.15652286    -0.32400
H909        H  0.44681740  0.71987956  0.16713979     0.29000
H910        H  0.37557011  0.95133758  0.13590665     0.29000
H911        H  0.31417065  0.53246666  0.15901200     0.19600
H912        H  0.50544466  0.63173341  0.14901706     0.19600
C913        C  0.37914876  0.77962706  0.15772977    -0.06300
C914        C  0.42079228  0.79337335  0.14651826    -0.17400
C915        C  0.45313473  0.84661047  0.14036669     0.10900
C916        C  0.44352302  0.88870081  0.14497220    -0.06200
C917        C  0.40173489  0.87484292  0.15610127    -0.17400
C918        C  0.36882856  0.82161762  0.16196646     0.11000
S919        S  0.50918905  0.86036784  0.12768836    -0.32400
S920        S  0.31203340  0.81064280  0.17377806    -0.32400
H921        H  0.28305278  0.75469443  0.17231486     0.29000
H922        H  0.49585176  0.80680017  0.12503597     0.29000
H923        H  0.42907506  0.76241471  0.14290652     0.19600
H924        H  0.39311421  0.90554674  0.15981233     0.19600
C925        C  0.10531691  0.56109033  0.14620987    -0.06300
C926        C  0.14144433  0.61610684  0.14290996    -0.17400
C927        C  0.19593909  0.64059145  0.14633339     0.10900
C928        C  0.21741719  0.61015218  0.15292901    -0.06200
C929        C  0.18147333  0.55470706  0.15522912    -0.17400
C930        C  0.12651067  0.53136273  0.15337529     0.11000
S931        S  0.23617331  0.71074712  0.14142718    -0.32400
S932        S  0.08516922  0.96235516  0.16243464    -0.32400
H933        H  0.05121945  0.97414636  0.17134532     0.29000
H934        H  0.28093384  0.70790794  0.13730456     0.29000
H935        H  0.12725827  0.64009048  0.13699205     0.19600
H936        H  0.19617558  0.52939299  0.15939531     0.19600
C937        C  0.39030359  0.58261863  0.64020724    -0.06300
C938        C  0.36832805  0.52739126  0.64306766    -0.17400
C939        C  0.37435357  0.50791670  0.65832932     0.10900
C940        C  0.40343454  0.54446853  0.67105807    -0.06200
C941        C  0.42217546  0.59925873  0.66858982    -0.17400
C942        C  0.41623357  0.61871807  0.65336993     0.11000
S943        S  0.34818116  0.93237466  0.65983207    -0.32400
S944        S  0.44078118  0.68984701  0.65184410    -0.32400
H945        H  0.48101541  0.69818631  0.64060926     0.29000
H946        H  0.33938989  0.92993027  0.67711826     0.29000
H947        H  0.34625916  0.49919675  0.63335289     0.19600
H948        H  0.44445943  0.62768169  0.67823113     0.19600
C949        C  0.42098127  0.81512796  0.63689660    -0.06300
C950        C  0.38392085  0.80514260  0.64947604    -0.17400
C951        C  0.39911905  0.82634114  0.66534788     0.10900
C952        C  0.45286491  0.86075235  0.66869113    -0.06200
C953        C  0.48993216  0.87159289  0.65591022    -0.17400
C954        C  0.47460550  0.84887687  0.64012024     0.11000
S955        S  0.34760049  0.80882704  0.68047192    -0.32400
S956        S  0.52333192  0.86526790  0.62395865    -0.32400
H957        H  0.56755824  0.89594837  0.63384646     0.29000
H958        H  0.36876106  0.78767765  0.69179663     0.29000
H959        H  0.34261713  0.77834233  0.64717433     0.19600
H960        H  0.53107245  0.89895180  0.65820620     0.19600
C961        C  0.13558397  0.58122623  0.66785326    -0.06300
C962        C  0.19025493  0.61102447  0.66873863    -0.17400
C963        C  0.22122860  0.62155768  0.65445441     0.10900
C964        C  0.19705750  0.60217649  0.63891200    -0.06200
C965        C  0.14272286  0.57097673  0.63800289    -0.17400
C966        C  0.11148898  0.56008564  0.65227832     0.11000
S967        S  0.29146243  0.65962231  0.65689800    -0.32400
S968        S  0.04119738  0.51800515  0.65021477    -0.32400
H969        H  0.04124706  0.50061457  0.63389699     0.29000
H970        H  0.30371658  0.63515633  0.64391139     0.29000
H971        H  0.20893116  0.62635675  0.68059756     0.19600
H972        H  0.12486208  0.55612712  0.62602329     0.19600
C973        C  0.21921333  0.93450196  0.52789946    -0.06300
C974        C  0.25890096  0.93743920  0.53813490    -0.17400
C975        C  0.27891250  0.97370803  0.55118094     0.10900
C976        C  0.25660361  0.50780259  0.55433507    -0.06200
C977        C  0.21821763  0.50544081  0.54365974    -0.17400
C978        C  0.19861039  0.96850438  0.53095385     0.11000
S979        S  0.33022548  0.97435861  0.56341454    -0.32400
S980        S  0.14429688  0.96568409  0.51991181    -0.32400
H981        H  0.12626261  0.91632470  0.51204264     0.29000
H982        H  0.35458232  0.53059437  0.56725701     0.29000
H983        H  0.27378425  0.91036343  0.53610094     0.19600
H984        H  0.20356601  0.53282600  0.54543248     0.19600
C985        C  0.06954370  0.77788297  0.52923327    -0.06300
C986        C  0.05048027  0.81067698  0.53493853    -0.17400
C987        C  0.01637975  0.79547305  0.54856790     0.10900
C988        C  0.50096049  0.74642435  0.55651945    -0.06200
C989        C  0.52013654  0.71357926  0.55104863    -0.17400
C990        C  0.05352916  0.72809333  0.53738777     0.11000
S991        S  0.99365454  0.84027578  0.55493412    -0.32400
S992        S  0.07171414  0.67962069  0.53071589    -0.32400
H993        H  0.10133190  0.70704213  0.51658428     0.29000
H994        H  0.48327755  0.82396429  0.57106357     0.29000
H995        H  0.06318181  0.84902451  0.52899102     0.19600
H996        H  0.50648158  0.67488989  0.55698838     0.19600
C997        C  0.22237723  0.78727443  0.53025932    -0.06300
C998        C  0.19252224  0.76218948  0.54477151    -0.17400
C999        C  0.21075687  0.74326016  0.55749081     0.10900
C1000       C  0.26121203  0.75052884  0.55612851    -0.06200
C1001       C  0.29225080  0.77695486  0.54214883    -0.17400
C1002       C  0.27444334  0.79663088  0.52949180     0.11000
S1003       S  0.16682624  0.70833356  0.57467263    -0.32400
S1004       S  0.32318457  0.83646713  0.51406834    -0.32400
H1005       H  0.29543416  0.85927480  0.50785293     0.29000
H1006       H  0.18009930  0.66796823  0.57586993     0.29000
H1007       H  0.15410637  0.75696637  0.54646795     0.19600
H1008       H  0.33173454  0.78353723  0.54127716     0.19600
C1009       C  0.22734507  0.94502801  0.49065885    -0.06300
C1010       C  0.19951212  0.96790610  0.48373583    -0.17400
C1011       C  0.22373429  0.51995659  0.47816697     0.10900
C1012       C  0.27850168  0.55569689  0.48022940    -0.06200
C1013       C  0.30634008  0.53389934  0.48771510    -0.17400
C1014       C  0.28238914  0.98007177  0.49226725     0.11000
S1015       S  0.18125694  0.53976046  0.46866006    -0.32400
S1016       S  0.32334944  0.95755552  0.50128142    -0.32400
H1017       H  0.36890298  0.00802978  0.50294367     0.29000
H1018       H  0.21567886  0.59440556  0.47073083     0.29000
H1019       H  0.15742745  0.94474420  0.48356797     0.19600
H1020       H  0.34831254  0.55805442  0.48813403     0.19600
C1021       C  0.44775011  0.72777311  0.48093343    -0.06300
C1022       C  0.48944295  0.77708459  0.47475029    -0.17400
C1023       C  0.04273268  0.79859684  0.47910041     0.10900
C1024       C  0.05684824  0.77352918  0.49147929    -0.06200
C1025       C  0.01527379  0.72416057  0.49774309    -0.17400
C1026       C  0.46157569  0.70284053  0.49345400     0.11000
S1027       S  0.09175904  0.85631035  0.46786628    -0.32400
S1028       S  0.41206776  0.64566632  0.50479872    -0.32400
H1029       H  0.44483812  0.64333286  0.51696753     0.29000
H1030       H  0.05896439  0.85733530  0.45545459     0.29000
H1031       H  0.48051030  0.79986082  0.46634322     0.19600
H1032       H  0.02418898  0.70177444  0.50633415     0.19600
C1033       C  0.22166045  0.77364565  0.49148384    -0.06300
C1034       C  0.21396890  0.72471418  0.49821050    -0.17400
C1035       C  0.24348886  0.70089076  0.49291768     0.10900
C1036       C  0.28069543  0.72454937  0.47978158    -0.06200
C1037       C  0.28824607  0.77340929  0.47304968    -0.17400
C1038       C  0.25890596  0.79731311  0.47838687     0.11000
S1039       S  0.23213793  0.63984931  0.50298149    -0.32400
S1040       S  0.27190042  0.85968957  0.46889350    -0.32400
H1041       H  0.31193866  0.86591011  0.45793149     0.29000
H1042       H  0.18972452  0.63175671  0.51312365     0.29000
H1043       H  0.18546628  0.70571551  0.50814572     0.19600
H1044       H  0.31725305  0.79284916  0.46327112     0.19600
C1045       C  0.32523192  0.92218953  0.88806438    -0.06300
C1046       C  0.36100265  0.90431031  0.88913830    -0.17400
C1047       C  0.39684492  0.91429692  0.87629755     0.10900
C1048       C  0.39866524  0.94462424  0.86219956    -0.06200
C1049       C  0.36095104  0.96024492  0.86078699    -0.17400
C1050       C  0.32524620  0.95060257  0.87367749     0.11000
S1051       S  0.43499671  0.88197816  0.87733893    -0.32400
S1052       S  0.28306668  0.97860287  0.87142663    -0.32400
H1053       H  0.28064034  0.98768950  0.88850355     0.29000
H1054       H  0.42566378  0.86674510  0.89421202     0.29000
H1055       H  0.35858889  0.87945784  0.89962285     0.19600
H1056       H  0.36196490  0.98414753  0.85025294     0.19600
C1057       C  0.08637715  0.91811889  0.88853339    -0.06300
C1058       C  0.10530062  0.97315590  0.88787138    -0.17400
C1059       C  0.09265459  0.99556330  0.87466285     0.10900
C1060       C  0.05778688  0.96215445  0.86235585    -0.06200
C1061       C  0.04107807  0.90734284  0.86256077    -0.17400
C1062       C  0.05408986  0.88475728  0.87566900     0.11000
S1063       S  0.12560863  0.56406096  0.87286258    -0.32400
S1064       S  0.02592818  0.81280451  0.87568193    -0.32400
H1065       H  0.02230469  0.80689270  0.89310057     0.29000
H1066       H  0.12660635  0.56532487  0.85538264     0.29000
H1067       H  0.13305159  0.99927697  0.89705648     0.19600
H1068       H  0.51350662  0.87959259  0.85315269     0.19600
C1069       C  0.08589712  0.68233539  0.88514051    -0.06300
C1070       C  0.03192338  0.64688817  0.88512034    -0.17400
C1071       C  0.00864149  0.61067717  0.87223240     0.10900
C1072       C  0.03995248  0.60642774  0.85969102    -0.06200
C1073       C  0.09359983  0.64429025  0.85914244    -0.17400
C1074       C  0.11701950  0.68240768  0.87166456     0.11000
S1075       S  0.43803097  0.57445795  0.87150349    -0.32400
S1076       S  0.18716516  0.72763857  0.87083924    -0.32400
H1077       H  0.19446856  0.71828408  0.85413027     0.29000
H1078       H  0.43605304  0.57121790  0.85404899     0.29000
H1079       H  0.00732755  0.64947514  0.89471974     0.19600
H1080       H  0.11811789  0.64143723  0.84968088     0.19600
C1081       C  0.27196694  0.89152934  0.77758888    -0.06300
C1082       C  0.30827956  0.87379590  0.77870006    -0.17400
C1083       C  0.34674228  0.88700901  0.76640949     0.10900
C1084       C  0.34875756  0.91836465  0.75258809    -0.06200
C1085       C  0.31369992  0.93723434  0.75173376    -0.17400
C1086       C  0.27599336  0.92486801  0.76404722     0.11000
S1087       S  0.39235179  0.86359866  0.76927698    -0.32400
S1088       S  0.23556593  0.95475377  0.76240973    -0.32400
H1089       H  0.25472716  0.98152098  0.74708753     0.29000
H1090       H  0.43666086  0.91206250  0.76417372     0.29000
H1091       H  0.30597139  0.84827381  0.78893799     0.19600
H1092       H  0.31626856  0.96234811  0.74130863     0.19600
C1093       C  0.11626573  0.88528539  0.77812763    -0.06300
C1094       C  0.08303137  0.84842815  0.76628101    -0.17400
C1095       C  0.06385531  0.86430415  0.75293714     0.10900
C1096       C  0.07736589  0.91851926  0.75158435    -0.06200
C1097       C  0.10798100  0.95480988  0.76392840    -0.17400
C1098       C  0.12803881  0.93933330  0.77705543     0.11000
S1099       S  0.52497402  0.81448250  0.73798353    -0.32400
S1100       S  0.17178643  0.99259438  0.79061975    -0.32400
H1101       H  0.19911841  0.96773799  0.79607206     0.29000
H1102       H  0.47787792  0.80572842  0.74533931     0.29000
H1103       H  0.07363080  0.80716964  0.76717733     0.19600
H1104       H  0.11734690  0.99626225  0.76317838     0.19600
C1105       C  0.12251104  0.73653604  0.77799157    -0.06300
C1106       C  0.06890112  0.71121444  0.77465216    -0.17400
C1107       C  0.04662472  0.67307721  0.76203375     0.10900
C1108       C  0.07905755  0.66068112  0.75204517    -0.06200
C1109       C  0.13259286  0.68547790  0.75581353    -0.17400
C1110       C  0.15431384  0.72227526  0.76871781     0.11000
S1111       S  0.47696985  0.63759466  0.76069645    -0.32400
S1112       S  0.22277698  0.74834403  0.77268260    -0.32400
H1113       H  0.22290075  0.76567996  0.78893813     0.29000
H1114       H  0.47087008  0.58597190  0.76145560     0.29000
H1115       H  0.04423628  0.72173454  0.78184269     0.19600
H1116       H  0.15808917  0.67583775  0.74874024     0.19600
C1117       C  0.11084168  0.88949021  0.81582067    -0.06300
C1118       C  0.06012160  0.87585500  0.81037135    -0.17400
C1119       C  0.03596592  0.90598422  0.81466832     0.10900
C1120       C  0.06108733  0.95074631  0.82528656    -0.06200
C1121       C  0.11182335  0.96426274  0.83076164    -0.17400
C1122       C  0.13554717  0.93352047  0.82672955     0.11000
S1123       S  0.47279242  0.88399772  0.80606752    -0.32400
S1124       S  0.19894291  0.95426956  0.83512737    -0.32400
H1125       H  0.18008420  0.90696538  0.84464365     0.29000
H1126       H  0.49384440  0.92741969  0.79475647     0.29000
H1127       H  0.03973368  0.84240724  0.80199437     0.19600
H1128       H  0.13063853  0.49829184  0.83786816     0.19600
C1129       C  0.38939642  0.93892608  0.82475507    -0.06300
C1130       C  0.37231335  0.97126295  0.81718146    -0.17400
C1131       C  0.31939803  0.95061696  0.81246019     0.10900
C1132       C  0.28114730  0.89545199  0.81501009    -0.06200
C1133       C  0.29838653  0.86294619  0.82250350    -0.17400
C1134       C  0.35143373  0.88378925  0.82730136     0.11000
S1135       S  0.30099692  0.99605718  0.80353028    -0.32400
S1136       S  0.37084273  0.83921850  0.83637405    -0.32400
H1137       H  0.32138418  0.79227450  0.83587381     0.29000
H1138       H  0.35134087  0.04183421  0.80289281     0.29000
H1139       H  0.40018890  0.01371424  0.81575647     0.19600
H1140       H  0.27057731  0.82048885  0.82393610     0.19600
C1141       C  0.11278439  0.72502875  0.81481906    -0.06300
C1142       C  0.13310746  0.69013310  0.81365041    -0.17400
C1143       C  0.10250995  0.63450182  0.81722818     0.10900
C1144       C  0.04962249  0.61136322  0.82265286    -0.06200
C1145       C  0.02909203  0.64615424  0.82370316    -0.17400
C1146       C  0.05954007  0.70169094  0.81985672     0.11000
S1147       S  0.13457745  0.59572297  0.81588535    -0.32400
S1148       S  0.02796033  0.74086479  0.82140918    -0.32400
H1149       H  0.07000500  0.78302253  0.82979159     0.29000
H1150       H  0.09268805  0.55296973  0.80764778     0.29000
H1151       H  0.17322025  0.70611558  0.80954864     0.19600
H1152       H  0.98936388  0.63027802  0.82828805     0.19600
C1153       C  0.37206398  0.76360175  0.19576762    -0.06300
C1154       C  0.42680228  0.79762152  0.19505645    -0.17400
C1155       C  0.45336853  0.83651642  0.20733026     0.10900
C1156       C  0.42495692  0.84020936  0.22105562    -0.06200
C1157       C  0.37092170  0.80593451  0.22182065    -0.17400
C1158       C  0.34440936  0.76853168  0.20946865     0.11000
S1159       S  0.52262912  0.88161168  0.20428584    -0.32400
S1160       S  0.27456173  0.73153807  0.21112424    -0.32400
H1161       H  0.27055666  0.73676954  0.22838044     0.29000
H1162       H  0.52115532  0.92792256  0.20880758     0.29000
H1163       H  0.44901079  0.79411076  0.18485683     0.19600
H1164       H  0.34884966  0.80951588  0.23205773     0.19600
C1165       C  0.41755378  0.57878749  0.22081850    -0.06300
C1166       C  0.36706945  0.56892512  0.22364147    -0.17400
C1167       C  0.34285402  0.58707419  0.21262571     0.10900
C1168       C  0.36923753  0.61461592  0.19751174    -0.06200
C1169       C  0.42136044  0.62671954  0.19554802    -0.17400
C1170       C  0.44484768  0.60751744  0.20643117     0.11000
S1171       S  0.28173982  0.57827904  0.22035580    -0.32400
S1172       S  0.50872707  0.61910344  0.20069458    -0.32400
H1173       H  0.99957500  0.56755910  0.20741724     0.29000
H1174       H  0.26570392  0.53029074  0.22928015     0.29000
H1175       H  0.34723343  0.54874470  0.23509870     0.19600
H1176       H  0.44534973  0.65297712  0.18574929     0.19600
C1177       C  0.21309045  0.60497485  0.18894190    -0.06300
C1178       C  0.18949886  0.63521329  0.19249008    -0.17400
C1179       C  0.15602143  0.62235958  0.20619011     0.10900
C1180       C  0.14154868  0.57466037  0.21535331    -0.06200
C1181       C  0.15638859  0.53868957  0.20908294    -0.17400
C1182       C  0.19217040  0.55323880  0.19599298     0.11000
S1183       S  0.13805628  0.67137010  0.21189441    -0.32400
S1184       S  0.21072421  0.50455144  0.18993086    -0.32400
H1185       H  0.25470065  0.53865559  0.18020553     0.29000
H1186       H  0.16143203  0.68021710  0.22763509     0.29000
H1187       H  0.20240484  0.67272625  0.18588438     0.19600
H1188       H  0.14229936  0.49980265  0.21490744     0.19600
C1189       C  0.08000724  0.92449612  0.30292809    -0.06300
C1190       C  0.13406771  0.95406803  0.30561142    -0.17400
C1191       C  0.15496529  0.95187116  0.32101457     0.10900
C1192       C  0.12080484  0.91908924  0.33394869    -0.06200
C1193       C  0.06682728  0.88887322  0.33105294    -0.17400
C1194       C  0.04616148  0.89111624  0.31571380     0.11000
S1195       S  0.22471348  0.99357332  0.32428550    -0.32400
S1196       S  0.97613329  0.85195228  0.31255467    -0.32400
H1197       H  0.96267459  0.82678622  0.32827886     0.29000
H1198       H  0.23807164  0.01616790  0.30821093     0.29000
H1199       H  0.15939619  0.98146393  0.29599862     0.19600
H1200       H  0.04086319  0.86233515  0.34071081     0.19600
C1201       C  0.09123707  0.66054884  0.29972574    -0.06300
C1202       C  0.06095014  0.68431382  0.30317936    -0.17400
C1203       C  0.06167900  0.70533604  0.31888554     0.10900
C1204       C  0.09440669  0.70384717  0.33138323    -0.06200
C1205       C  0.12676490  0.68260962  0.32759363    -0.17400
C1206       C  0.12590246  0.66155057  0.31190215     0.11000
S1207       S  0.01731052  0.73014605  0.32250974    -0.32400
S1208       S  0.16915373  0.63542769  0.30814238    -0.32400
H1209       H  0.17002418  0.64045416  0.29071331     0.29000
H1210       H  0.00770877  0.71457660  0.33936165     0.29000
H1211       H  0.03297977  0.68212368  0.29411261     0.19600
H1212       H  0.15401027  0.68374730  0.33676170     0.19600
C1213       C  0.30794379  0.88763705  0.33419379    -0.06300
C1214       C  0.33660653  0.94329908  0.33160572    -0.17400
C1215       C  0.36004157  0.96498512  0.31623356     0.10900
C1216       C  0.35572107  0.93046680  0.30312155    -0.06200
C1217       C  0.32620307  0.87489139  0.30553601    -0.17400
C1218       C  0.30304779  0.85311515  0.32096353     0.11000
S1219       S  0.37899482  0.54291595  0.31122043    -0.32400
S1220       S  0.27029336  0.78107010  0.32317061    -0.32400
H1221       H  0.28227893  0.78138578  0.34008584     0.29000
H1222       H  0.37201748  0.53843049  0.29389363     0.29000
H1223       H  0.33898624  0.97016993  0.34139110     0.19600
H1224       H  0.32468210  0.84831863  0.29577793     0.19600
C1225       C  0.28855244  0.56795344  0.44287428    -0.06300
C1226       C  0.25083084  0.56715377  0.43217276    -0.17400
C1227       C  0.23015991  0.02859405  0.41896255     0.10900
C1228       C  0.24896220  0.99271270  0.41644095    -0.06200
C1229       C  0.28795183  0.49712489  0.42673368    -0.17400
C1230       C  0.30815235  0.53312009  0.43989341     0.11000
S1231       S  0.18383513  0.03156877  0.40504122    -0.32400
S1232       S  0.36040060  0.53339309  0.45148577    -0.32400
H1233       H  0.37857658  0.58220599  0.45968738     0.29000
H1234       H  0.18198336  0.07434621  0.41272189     0.29000
H1235       H  0.23738593  0.59536089  0.43419260     0.19600
H1236       H  0.30232988  0.46958083  0.42486211     0.19600
C1237       C  0.43853272  0.72310602  0.44321342    -0.06300
C1238       C  0.45822600  0.69003973  0.43852343    -0.17400
C1239       C  0.99604123  0.70324100  0.42572231     0.10900
C1240       C  0.01176374  0.75118824  0.41649020    -0.06200
C1241       C  0.49214820  0.78673818  0.42169697    -0.17400
C1242       C  0.45616656  0.77247191  0.43485545     0.11000
S1243       S  0.02212014  0.65947547  0.42157402    -0.32400
S1244       S  0.43542200  0.81909216  0.44139168    -0.32400
H1245       H  0.46240973  0.85830143  0.42901151     0.29000
H1246       H  0.99035682  0.61835493  0.43293355     0.29000
H1247       H  0.44419703  0.65235198  0.44500590     0.19600
H1248       H  0.50560621  0.82478162  0.41542410     0.19600
C1249       C  0.24311339  0.74584511  0.41448896    -0.06300
C1250       C  0.21077036  0.71694037  0.42799973    -0.17400
C1251       C  0.22953138  0.69943255  0.44116853     0.10900
C1252       C  0.28287541  0.71279505  0.44107083    -0.06200
C1253       C  0.31368504  0.73978649  0.42696431    -0.17400
C1254       C  0.29470097  0.75596026  0.41378803     0.11000
S1255       S  0.18314661  0.65723878  0.45689511    -0.32400
S1256       S  0.33770312  0.78702199  0.39608684    -0.32400
H1257       H  0.29776310  0.76567233  0.38416399     0.29000
H1258       H  0.14034313  0.66210319  0.45173605     0.29000
H1259       H  0.17067475  0.70853355  0.42825178     0.19600
H1260       H  0.35277493  0.74664987  0.42562541     0.19600
Zn1261     Zn  0.67219648  0.33884889  0.35481963     1.49700
Zn1262     Zn  0.63520636  0.37417027  0.38318818     1.49400
Zn1263     Zn  0.63375710  0.26163053  0.38237537     1.49100
Zn1264     Zn  0.74347153  0.37318302  0.38317551     1.49500
O1265       O  0.67109519  0.33694443  0.37780150    -1.84300
O1266       O  0.67835637  0.40499452  0.34600654    -0.74900
O1267       O  0.57473145  0.32488108  0.39802380    -0.74700
O1268       O  0.61645712  0.21987461  0.36033421    -0.74200
O1269       O  0.61247910  0.39538190  0.36161293    -0.74900
O1270       O  0.60796687  0.27998582  0.34582884    -0.74500
O1271       O  0.57107285  0.24607422  0.39661153    -0.75100
O1272       O  0.75616073  0.32281138  0.39692513    -0.74500
O1273       O  0.68298177  0.43684318  0.39746808    -0.75200
O1274       O  0.67951514  0.24590690  0.39684864    -0.74600
O1275       O  0.75728923  0.43469012  0.39783916    -0.75100
O1276       O  0.78807094  0.39781440  0.36193148    -0.75000
O1277       O  0.73058526  0.33252676  0.34609393    -0.74800
C1278       C  0.63790311  0.40894007  0.34780175     0.77000
C1279       C  0.55480318  0.27596959  0.40264821     0.77500
C1280       C  0.60440587  0.23459931  0.34687684     0.76500
C1281       C  0.72667947  0.27431356  0.40170798     0.76800
C1282       C  0.72940849  0.45442904  0.40273182     0.78000
C1283       C  0.77585364  0.37240598  0.34821332     0.77000
Zn1284     Zn  0.53821643  0.46688969  0.25341406     1.49700
Zn1285     Zn  0.53975481  0.07434600  0.25260743     1.49400
Zn1286     Zn  0.93026022  0.46424613  0.25344028     1.49100
Zn1287     Zn  0.50334335  0.50653352  0.28222305     1.49500
O1288       O  0.50153294  0.50422014  0.25915806    -1.84300
O1289       O  0.59584464  0.00737464  0.23726329    -0.74900
O1290       O  0.99416747  0.08941024  0.23823415    -0.74700
O1291       O  0.92091059  0.40579033  0.23837474    -0.74200
O1292       O  0.59545724  0.08407917  0.23685071    -0.74900
O1293       O  0.99403596  0.40169635  0.23929801    -0.74500
O1294       O  0.91836946  0.01213588  0.23846362    -0.75100
O1295       O  0.93851726  0.49518334  0.29186396    -0.74500
O1296       O  0.56757294  0.12982162  0.27147853    -0.75200
O1297       O  0.88326634  0.43507698  0.27409422    -0.74600
O1298       O  0.55333206  0.07386429  0.29243884    -0.75100
O1299       O  0.51071469  0.44901702  0.29215953    -0.75000
O1300       O  0.56798520  0.44970512  0.27415066    -0.74800
C1301       C  0.61131176  0.05374782  0.23112675     0.77000
C1302       C  0.94748314  0.06003714  0.23317896     0.77500
C1303       C  0.94852639  0.38576096  0.23355029     0.76500
C1304       C  0.89348510  0.45679414  0.28840594     0.76800
C1305       C  0.57098337  0.12076296  0.28682669     0.78000
C1306       C  0.54774636  0.44051542  0.28875556     0.77000
C1307       C  0.66887741  0.33717813  0.81383652     0.45300
H1308       H  0.66855368  0.33572213  0.82760450    -0.03700
C1309       C  0.66957868  0.33867894  0.78152256     0.45400
H1310       H  0.66954776  0.33845105  0.76769250    -0.03700
C1311       C  0.63834776  0.36441951  0.80619750    -0.17400
C1312       C  0.72623852  0.36898726  0.80573263    -0.17100
C1313       C  0.64160840  0.27931590  0.80576545    -0.17500
C1314       C  0.63995746  0.36428668  0.78908073    -0.17500
C1315       C  0.72439019  0.36911952  0.78863012    -0.17100
C1316       C  0.64408850  0.28228116  0.78876023    -0.17400
C1317       C  0.99680032  0.49887064  0.82498103     0.45300
H1318       H  0.99624718  0.49787254  0.81121218    -0.03700
C1319       C  0.99950535  0.00430762  0.85748337     0.45400
H1320       H  0.00002086  0.00650412  0.87129223    -0.03700
C1321       C  0.52355086  0.05788006  0.83209412    -0.17400
C1322       C  0.94019087  0.46596475  0.83340297    -0.17100
C1323       C  0.52951908  0.47444612  0.83301187    -0.17500
C1324       C  0.52087687  0.05812876  0.84912707    -0.17500
C1325       C  0.94270612  0.46784629  0.85050708    -0.17100
C1326       C  0.52960461  0.47861101  0.85004819    -0.17400
C1327       C  0.66909640  0.33230288  0.52454679     0.45300
H1328       H  0.66826908  0.33432293  0.53833505    -0.03700
C1329       C  0.66963358  0.33118640  0.49235986     0.45400
H1330       H  0.67017469  0.33051007  0.47859978    -0.03700
C1331       C  0.69445231  0.38790359  0.51697833    -0.17400
C1332       C  0.69974977  0.30695415  0.51783555    -0.17100
C1333       C  0.61463262  0.30054299  0.51735305    -0.17500
C1334       C  0.69759047  0.39007828  0.49999165    -0.17500
C1335       C  0.69933817  0.30361703  0.50059724    -0.17100
C1336       C  0.61182838  0.29988026  0.50024250    -0.17400
C1337       C  0.83984263  0.17054303  0.44642355     0.45300
H1338       H  0.84179417  0.16967561  0.43262634    -0.03700
C1339       C  0.83668813  0.16945952  0.47862887     0.45400
H1340       H  0.83533203  0.16911831  0.49238896    -0.03700
C1341       C  0.80879988  0.19566530  0.45305549    -0.17400
C1342       C  0.81339060  0.11425671  0.45362667    -0.17100
C1343       C  0.89382827  0.20140630  0.45412651    -0.17500
C1344       C  0.80753196  0.19759812  0.47030621    -0.17500
C1345       C  0.80928451  0.11118978  0.47060727    -0.17100
C1346       C  0.89509698  0.20091414  0.47125745    -0.17400
Zn1347     Zn  0.79428835  0.08880767  0.60174627     1.49700
Zn1348     Zn  0.84108070  0.16794127  0.57112230     1.49400
Zn1349     Zn  0.80807374  0.20620235  0.60259079     1.49100
Zn1350     Zn  0.90961517  0.19331807  0.60252799     1.49500
O1351       O  0.83819599  0.16386152  0.59475003    -1.84300
O1352       O  0.77055225  0.03816634  0.58201110    -0.74900
O1353       O  0.80797433  0.20600723  0.56226991    -0.74700
O1354       O  0.75333873  0.16354677  0.61950882    -0.74200
O1355       O  0.80464499  0.09712249  0.56111879    -0.74900
O1356       O  0.73411703  0.07889429  0.61633210    -0.74500
O1357       O  0.77980933  0.23211308  0.58395382    -0.75100
O1358       O  0.92761336  0.25494542  0.61755449    -0.74500
O1359       O  0.91249929  0.20451469  0.56224581    -0.75200
O1360       O  0.85884043  0.26664790  0.61654383    -0.74600
O1361       O  0.96356744  0.21624976  0.58384572    -0.75100
O1362       O  0.91290608  0.14211534  0.61837919    -0.75000
O1363       O  0.83301701  0.07016666  0.61821618    -0.74800
C1364       C  0.77850930  0.04942624  0.56652109     0.77000
C1365       C  0.78458699  0.22873814  0.56830171     0.77500
C1366       C  0.72849239  0.11448240  0.62383880     0.76500
C1367       C  0.90286288  0.27781238  0.62253815     0.76800
C1368       C  0.95713198  0.22005208  0.56835999     0.78000
C1369       C  0.87849452  0.09703984  0.62438286     0.77000
Zn1370     Zn  0.57479987  0.03653633  0.71913288     1.49700
Zn1371     Zn  0.96632918  0.03552396  0.71915270     1.49400
Zn1372     Zn  0.50373624  0.99964898  0.69110746     1.49100
Zn1373     Zn  0.96436258  0.42560980  0.71854101     1.49500
O1374       O  0.50229667  0.99839843  0.71394736    -1.84300
O1375       O  0.58672922  0.09855915  0.73368351    -0.74900
O1376       O  0.93660173  0.05095731  0.69833570    -0.74700
O1377       O  0.56179802  0.06742448  0.68297631    -0.74200
O1378       O  0.51189881  0.09945420  0.73298709    -0.74900
O1379       O  0.61902554  0.05704216  0.69737014    -0.74500
O1380       O  0.93994497  0.99168628  0.68178501    -0.75100
O1381       O  0.94287869  0.38131676  0.69730624    -0.74500
O1382       O  0.90879093  0.48908281  0.73461659    -0.75200
O1383       O  0.00747434  0.44175611  0.68172162    -0.74600
O1384       O  0.90362928  0.40927937  0.73342253    -0.75100
O1385       O  0.50984021  0.40900456  0.73257357    -0.75000
O1386       O  0.58525060  0.48700429  0.73319147    -0.74800
C1387       C  0.55790494  0.11732652  0.73860260     0.77000
C1388       C  0.92542828  0.02529687  0.68464573     0.77500
C1389       C  0.60524550  0.06920988  0.68375515     0.76500
C1390       C  0.96856127  0.39495829  0.68361379     0.76800
C1391       C  0.88888976  0.44043876  0.73935455     0.78000
C1392       C  0.55606888  0.43837305  0.73794950     0.77000
C1393       C  0.83186019  0.16765577  0.15836270     0.45300
H1394       H  0.83696972  0.16888986  0.14465940    -0.03700
C1395       C  0.82095146  0.16424606  0.19041681     0.45400
H1396       H  0.81613413  0.16579923  0.20384878    -0.03700
C1397       C  0.77231202  0.13511489  0.16424184    -0.17400
C1398       C  0.86007789  0.14013676  0.16791702    -0.17100
C1399       C  0.85443872  0.22532820  0.16649816    -0.17500
C1400       C  0.76916072  0.13285928  0.18116201    -0.17500
C1401       C  0.85370189  0.13952801  0.18522002    -0.17100
C1402       C  0.84901195  0.22137582  0.18355294    -0.17400
C1403       C  0.99733961  0.00087104  0.14614671     0.45300
H1404       H  0.99537570  0.99769772  0.15989512    -0.03700
C1405       C  0.00057671  0.00885169  0.11396122     0.45400
H1406       H  0.00107411  0.01244510  0.10018379    -0.03700
C1407       C  0.96817997  0.44436241  0.13543286    -0.17400
C1408       C  0.96837958  0.03072604  0.13908123    -0.17100
C1409       C  0.55560489  0.03393402  0.13865002    -0.17500
C1410       C  0.97008837  0.45130466  0.11831003    -0.17500
C1411       C  0.97187324  0.03424639  0.12209237    -0.17100
C1412       C  0.55517252  0.03648069  0.12157786    -0.17400
Zn1413     Zn  0.73283120  0.36069978  0.93471796     1.49700
Zn1414     Zn  0.66567525  0.33891736  0.90363732     1.49400
Zn1415     Zn  0.61437171  0.26244227  0.93311899     1.49100
Zn1416     Zn  0.63698480  0.38287448  0.93439185     1.49500
O1417       O  0.66262666  0.33628970  0.92701178    -1.84300
O1418       O  0.78707873  0.39256671  0.91570043    -0.74900
O1419       O  0.64041850  0.26990923  0.89356940    -0.74700
O1420       O  0.65022562  0.23934154  0.94899496    -0.74200
O1421       O  0.73513830  0.38346244  0.89469758    -0.74900
O1422       O  0.73499395  0.30129494  0.94722315    -0.74500
O1423       O  0.58912781  0.21285215  0.91310329    -0.75100
O1424       O  0.57774953  0.34202611  0.95022541    -0.74500
O1425       O  0.62329005  0.36545822  0.89446413    -0.75200
O1426       O  0.55671377  0.25677772  0.94759141    -0.74600
O1427       O  0.61207083  0.40976026  0.91509078    -0.75100
O1428       O  0.68856747  0.43977119  0.94964324    -0.75000
O1429       O  0.74700658  0.41342825  0.95287050    -0.74800
C1430       C  0.78023556  0.39962866  0.90041713     0.77000
C1431       C  0.60705533  0.22302402  0.89822092     0.77500
C1432       C  0.69737182  0.25826308  0.95346715     0.76500
C1433       C  0.55136525  0.29311430  0.95468306     0.76800
C1434       C  0.60642452  0.39488624  0.89994619     0.78000
C1435       C  0.72579951  0.44014502  0.95766394     0.77000
Zn1436     Zn  0.78946426  0.20393543  0.04774743     1.49700
Zn1437     Zn  0.89793516  0.20358888  0.05132972     1.49400
Zn1438     Zn  0.78895159  0.09226523  0.05240835     1.49100
Zn1439     Zn  0.82768317  0.15693607  0.02207176     1.49500
O1440       O  0.82630021  0.16517231  0.04475572    -1.84300
O1441       O  0.83346416  0.27013720  0.06128762    -0.74900
O1442       O  0.91173784  0.15578469  0.06636748    -0.74700
O1443       O  0.73028987  0.08491979  0.06647433    -0.74200
O1444       O  0.90486577  0.26385755  0.06545566    -0.74900
O1445       O  0.72971073  0.16121546  0.06299365    -0.74500
O1446       O  0.83508394  0.07988903  0.06777866    -0.75100
O1447       O  0.83068616  0.09283868  0.01649843    -0.74500
O1448       O  0.94768154  0.23179582  0.03091469    -0.75200
O1449       O  0.76461971  0.03934325  0.03301620    -0.74600
O1450       O  0.88821131  0.21670565  0.01177704    -0.75100
O1451       O  0.76723159  0.15309405  0.01106871    -0.75000
O1452       O  0.76423784  0.21704456  0.02544347    -0.74800
C1453       C  0.87704266  0.28535830  0.06843502     0.77000
C1454       C  0.88248408  0.10855234  0.07229980     0.77500
C1455       C  0.71265794  0.11593249  0.07006346     0.76500
C1456       C  0.79155044  0.04721964  0.01972799     0.76800
C1457       C  0.93539888  0.23633199  0.01602793     0.78000
C1458       C  0.75476168  0.18901961  0.01227879     0.77000
C1459       C  0.70752874  0.23294371  0.96764298    -0.06300
C1460       C  0.67981650  0.22739785  0.98253545    -0.17400
C1461       C  0.69290779  0.21161364  0.99734731     0.10900
C1462       C  0.73461236  0.20117711  0.99723751    -0.06200
C1463       C  0.76063074  0.20447784  0.98215038    -0.17400
C1464       C  0.74760218  0.22026374  0.96739796     0.11000
S1465       S  0.65515680  0.20551209  0.01580040    -0.32400
S1466       S  0.78371948  0.22394024  0.94877303    -0.32400
H1467       H  0.74306124  0.21305381  0.93766026     0.29000
H1468       H  0.65971546  0.16367066  0.02308976     0.29000
H1469       H  0.64891127  0.23725188  0.98275163     0.19600
H1470       H  0.79257036  0.19617318  0.98192666     0.19600
C1471       C  0.77428207  0.00702730  0.00649907    -0.06300
C1472       C  0.72204435  0.49315182  0.00054740    -0.17400
C1473       C  0.70524743  0.46834049  0.98515835     0.10900
C1474       C  0.74203244  0.46810316  0.97377490    -0.06200
C1475       C  0.79427362  0.98293798  0.97962735    -0.17400
C1476       C  0.81080016  0.00584191  0.99528735     0.11000
S1477       S  0.63600186  0.43578650  0.98122563    -0.32400
S1478       S  0.87919666  0.03389973  0.00014627    -0.32400
H1479       H  0.87161677  0.02806539  0.01749675     0.29000
H1480       H  0.63297602  0.38720607  0.97677778     0.29000
H1481       H  0.69411180  0.49586708  0.00871431     0.19600
H1482       H  0.82282969  0.98355909  0.97095002     0.19600
C1483       C  0.51998880  0.27946159  0.97007586    -0.06300
C1484       C  0.52645351  0.24666266  0.98164084    -0.17400
C1485       C  0.50269844  0.23587807  0.99732676     0.10900
C1486       C  0.97406399  0.25964274  0.00246563    -0.06200
C1487       C  0.96798245  0.29294255  0.99097356    -0.17400
C1488       C  0.99085700  0.30286368  0.97512323     0.11000
S1489       S  0.51002405  0.18955132  0.01056412    -0.32400
S1490       S  0.97680216  0.34222796  0.96085520    -0.32400
H1491       H  0.97789425  0.31517085  0.94647409     0.29000
H1492       H  0.45621704  0.15742219  0.01420965     0.29000
H1493       H  0.55034600  0.22917600  0.97843975     0.19600
H1494       H  0.94233009  0.30849584  0.99400694     0.19600
C1495       C  0.94555927  0.40821847  0.10541775    -0.06300
C1496       C  0.89216487  0.36892784  0.10681550    -0.17400
C1497       C  0.86764261  0.32897316  0.09470459     0.10900
C1498       C  0.89683039  0.32880365  0.08069063    -0.06200
C1499       C  0.94904394  0.36864988  0.07901581    -0.17400
C1500       C  0.97351686  0.40833307  0.09091701     0.11000
S1501       S  0.80001382  0.27840630  0.09818785    -0.32400
S1502       S  0.04162065  0.45545822  0.08728102    -0.32400
H1503       H  0.54324492  0.45070217  0.07036544     0.29000
H1504       H  0.80473279  0.23541337  0.09206360     0.29000
H1505       H  0.86949335  0.36910190  0.11743936     0.19600
H1506       H  0.97134314  0.36782935  0.06836577     0.19600
C1507       C  0.94667842  0.05602956  0.11124639    -0.06300
C1508       C  0.90085629  0.01843594  0.10324902    -0.17400
C1509       C  0.87920300  0.03347069  0.09032159     0.10900
C1510       C  0.90363187  0.08823848  0.08540632    -0.06200
C1511       C  0.94921207  0.12582153  0.09368780    -0.17400
C1512       C  0.97148070  0.11051306  0.10626581     0.11000
S1513       S  0.82218506  0.98133120  0.07993967    -0.32400
S1514       S  0.53024496  0.16411375  0.11549072    -0.32400
H1515       H  0.54637892  0.13216562  0.12375503     0.29000
H1516       H  0.82390604  0.93722734  0.08674222     0.29000
H1517       H  0.88309265  0.97653589  0.10677910     0.19600
H1518       H  0.96839054  0.16789586  0.09021849     0.19600
C1519       C  0.67482006  0.10035974  0.08385656    -0.06300
C1520       C  0.67638317  0.06685745  0.09620825    -0.17400
C1521       C  0.63953887  0.04631594  0.10902628     0.10900
C1522       C  0.60166002  0.06262430  0.11032205    -0.06200
C1523       C  0.60232032  0.09878388  0.09844413    -0.17400
C1524       C  0.63814935  0.11774360  0.08527841     0.11000
S1525       S  0.63344210  0.49020832  0.11895298    -0.32400
S1526       S  0.63171298  0.15979378  0.07000859    -0.32400
H1527       H  0.67953737  0.20519051  0.07438669     0.29000
H1528       H  0.58062591  0.46605355  0.12341714     0.29000
H1529       H  0.70485121  0.05373080  0.09534166     0.19600
H1530       H  0.57246671  0.10982549  0.09874965     0.19600
C1531       C  0.88783036  0.11320803  0.15951361    -0.06300
C1532       C  0.86087412  0.05686045  0.15780702    -0.17400
C1533       C  0.88551209  0.02860630  0.15174387     0.10900
C1534       C  0.94051502  0.05583060  0.14847261    -0.06200
C1535       C  0.96749420  0.11198034  0.15059821    -0.17400
C1536       C  0.94202781  0.14081495  0.15509825     0.11000
S1537       S  0.84321904  0.95783038  0.14827061    -0.32400
S1538       S  0.98263737  0.21294972  0.15578035    -0.32400
H1539       H  0.95185672  0.22272240  0.16697511     0.29000
H1540       H  0.87212841  0.45037162  0.13488030     0.29000
H1541       H  0.81950561  0.03439587  0.16088007     0.19600
H1542       H  0.00930279  0.13424904  0.14836764     0.19600
C1543       C  0.87995653  0.28014404  0.15748898    -0.06300
C1544       C  0.92049998  0.29363506  0.14585352    -0.17400
C1545       C  0.95118269  0.34635416  0.13909985     0.10900
C1546       C  0.94143113  0.38839200  0.14372388    -0.06200
C1547       C  0.90057823  0.37469141  0.15522361    -0.17400
C1548       C  0.86896113  0.32182511  0.16154718     0.11000
S1549       S  0.00524647  0.35931762  0.12555679    -0.32400
S1550       S  0.81252852  0.31081943  0.17355709    -0.32400
H1551       H  0.78447008  0.25470446  0.17265213     0.29000
H1552       H  0.99022527  0.30548032  0.12249224     0.29000
H1553       H  0.92929193  0.26291262  0.14236564     0.19600
H1554       H  0.89147989  0.40517532  0.15882963     0.19600
C1555       C  0.60855774  0.06111123  0.14761738    -0.06300
C1556       C  0.64532636  0.11562785  0.14391776    -0.17400
C1557       C  0.69976031  0.13954039  0.14728117     0.10900
C1558       C  0.72047820  0.10916160  0.15446018    -0.06200
C1559       C  0.68363167  0.05426052  0.15755119    -0.17400
C1560       C  0.62883369  0.03146419  0.15542260     0.11000
S1561       S  0.74071632  0.20905750  0.14173598    -0.32400
S1562       S  0.58536255  0.46134514  0.16003197    -0.32400
H1563       H  0.54785223  0.46974917  0.16807967     0.29000
H1564       H  0.78348660  0.20391927  0.13666509     0.29000
H1565       H  0.63170486  0.13955442  0.13763622     0.19600
H1566       H  0.69736093  0.02904626  0.16261248     0.19600
C1567       C  0.88936520  0.07817173  0.64003476    -0.06300
C1568       C  0.86997153  0.02317273  0.64243367    -0.17400
C1569       C  0.87611367  0.00340785  0.65762932     0.10900
C1570       C  0.90244579  0.03948931  0.67077082    -0.06200
C1571       C  0.91825976  0.09378180  0.66872521    -0.17400
C1572       C  0.91245988  0.11352535  0.65355275     0.11000
S1573       S  0.83923091  0.43637376  0.66179997    -0.32400
S1574       S  0.93365043  0.18400541  0.65248031    -0.32400
H1575       H  0.97573329  0.19552692  0.64164523     0.29000
H1576       H  0.83440493  0.43699097  0.67920968     0.29000
H1577       H  0.85002334  0.99545940  0.63239718     0.19600
H1578       H  0.93840431  0.12185822  0.67866384     0.19600
C1579       C  0.92132069  0.31150516  0.63743597    -0.06300
C1580       C  0.88356999  0.30289163  0.64963469    -0.17400
C1581       C  0.89787500  0.32587678  0.66531693     0.10900
C1582       C  0.95144345  0.35973271  0.66894649    -0.06200
C1583       C  0.98929008  0.36866632  0.65663914    -0.17400
C1584       C  0.97482414  0.34494703  0.64094300     0.11000
S1585       S  0.84555274  0.31252828  0.67968731    -0.32400
S1586       S  0.02452386  0.35989258  0.62523975    -0.32400
H1587       H  0.06739817  0.39835899  0.63437360     0.29000
H1588       H  0.86374438  0.29084786  0.69185885     0.29000
H1589       H  0.84232696  0.27638709  0.64714283     0.19600
H1590       H  0.03034891  0.39553445  0.65920769     0.19600
C1591       C  0.63640441  0.08024244  0.66827338    -0.06300
C1592       C  0.69110462  0.10685532  0.66913943    -0.17400
C1593       C  0.72168942  0.11686151  0.65478052     0.10900
C1594       C  0.69717809  0.10025477  0.63915974    -0.06200
C1595       C  0.64272226  0.07248454  0.63822235    -0.17400
C1596       C  0.61182115  0.06190530  0.65257874     0.11000
S1597       S  0.79190933  0.15110909  0.65720722    -0.32400
S1598       S  0.54124813  0.02339876  0.65044118    -0.32400
H1599       H  0.54030697  0.00713387  0.63391598     0.29000
H1600       H  0.80206200  0.12610851  0.64388752     0.29000
H1601       H  0.71014932  0.12004307  0.68105526     0.19600
H1602       H  0.62455802  0.05987732  0.62617382     0.19600
C1603       C  0.71789793  0.43388965  0.52842223    -0.06300
C1604       C  0.75631390  0.43661799  0.53923642    -0.17400
C1605       C  0.77623972  0.47405171  0.55197300     0.10900
C1606       C  0.75702338  0.00744926  0.55405547    -0.06200
C1607       C  0.71853215  0.00553199  0.54353419    -0.17400
C1608       C  0.69828045  0.46915962  0.53068490     0.11000
S1609       S  0.82655987  0.47524036  0.56483500    -0.32400
S1610       S  0.64491834  0.46635829  0.51906698    -0.32400
H1611       H  0.62565052  0.41547371  0.51210830     0.29000
H1612       H  0.85433538  0.02970521  0.56754642     0.29000
H1613       H  0.77069393  0.40889644  0.53778830     0.19600
H1614       H  0.70329765  0.03225319  0.54569064     0.19600
C1615       C  0.57060685  0.27613221  0.52938367    -0.06300
C1616       C  0.55217258  0.30906470  0.53544777    -0.17400
C1617       C  0.51852771  0.29359577  0.54918900     0.10900
C1618       C  0.00135507  0.24294549  0.55676109    -0.06200
C1619       C  0.01999798  0.20990952  0.55100414    -0.17400
C1620       C  0.55476769  0.22612949  0.53735697     0.11000
S1621       S  0.49665613  0.33863686  0.55605136    -0.32400
S1622       S  0.57314217  0.17810478  0.53035658    -0.32400
H1623       H  0.60191736  0.20573162  0.51611964     0.29000
H1624       H  0.98584307  0.32102644  0.57197208     0.29000
H1625       H  0.56515823  0.34779337  0.52971831     0.19600
H1626       H  0.00614642  0.17095574  0.55678147     0.19600
C1627       C  0.72444684  0.28767412  0.53038305    -0.06300
C1628       C  0.69438926  0.26184647  0.54479407    -0.17400
C1629       C  0.71282945  0.24326057  0.55755845     0.10900
C1630       C  0.76362010  0.25132315  0.55633594    -0.06200
C1631       C  0.79482120  0.27833740  0.54242880    -0.17400
C1632       C  0.77681206  0.29776304  0.52971748     0.11000
S1633       S  0.66865296  0.20760349  0.57461622    -0.32400
S1634       S  0.82552266  0.33784429  0.51429981    -0.32400
H1635       H  0.79755267  0.36013197  0.50785201     0.29000
H1636       H  0.68218090  0.16740460  0.57568606     0.29000
H1637       H  0.65556623  0.25567481  0.54635925     0.19600
H1638       H  0.83446979  0.28535942  0.54162661     0.19600
C1639       C  0.72749689  0.44469143  0.49110287    -0.06300
C1640       C  0.69963293  0.46658455  0.48357942    -0.17400
C1641       C  0.72378279  0.02120218  0.47755085     0.10900
C1642       C  0.77879382  0.05635316  0.47925830    -0.06200
C1643       C  0.80665469  0.03395178  0.48632553    -0.17400
C1644       C  0.78223843  0.48034454  0.49315219     0.11000
S1645       S  0.68128342  0.04164204  0.46839234    -0.32400
S1646       S  0.82287538  0.45900206  0.50312676    -0.32400
H1647       H  0.86882196  0.50944731  0.50410430     0.29000
H1648       H  0.71681100  0.09632750  0.46969314     0.29000
H1649       H  0.65761816  0.44281754  0.48304986     0.19600
H1650       H  0.84864670  0.05792959  0.48653122     0.19600
C1651       C  0.94857293  0.22724161  0.48040537    -0.06300
C1652       C  0.99079811  0.27652006  0.47445362    -0.17400
C1653       C  0.54455013  0.29735414  0.47867687     0.10900
C1654       C  0.55779628  0.27278099  0.49147553    -0.06200
C1655       C  0.51546722  0.22392155  0.49780198    -0.17400
C1656       C  0.96181079  0.20171791  0.49294692     0.11000
S1657       S  0.59431029  0.35380745  0.46715843    -0.32400
S1658       S  0.91161601  0.14407220  0.50394568    -0.32400
H1659       H  0.94432138  0.13681011  0.51496444     0.29000
H1660       H  0.56220640  0.35395854  0.45435187     0.29000
H1661       H  0.98240847  0.29993869  0.46605163     0.19600
H1662       H  0.52359690  0.20156063  0.50663730     0.19600
C1663       C  0.72392473  0.27499101  0.49152973    -0.06300
C1664       C  0.71605068  0.22578262  0.49802360    -0.17400
C1665       C  0.74523477  0.20189266  0.49248433     0.10900
C1666       C  0.78216017  0.22571438  0.47927863    -0.06200
C1667       C  0.79012218  0.27506264  0.47282667    -0.17400
C1668       C  0.76134031  0.29922952  0.47850189     0.11000
S1669       S  0.73353944  0.14037489  0.50228688    -0.32400
S1670       S  0.77534050  0.36268801  0.46959023    -0.32400
H1671       H  0.81790321  0.37110263  0.45946995     0.29000
H1672       H  0.69750115  0.13698022  0.51444997     0.29000
H1673       H  0.68743275  0.20643932  0.50790865     0.19600
H1674       H  0.81904456  0.29474339  0.46303926     0.19600
C1675       C  0.82376178  0.42193669  0.88831311    -0.06300
C1676       C  0.86030369  0.40508623  0.88949622    -0.17400
C1677       C  0.89614195  0.41513196  0.87662910     0.10900
C1678       C  0.89712167  0.44446639  0.86235355    -0.06200
C1679       C  0.85879169  0.45921922  0.86087824    -0.17400
C1680       C  0.82306857  0.44944693  0.87377861     0.11000
S1681       S  0.93572283  0.38440585  0.87795948    -0.32400
S1682       S  0.77978700  0.47604370  0.87128734    -0.32400
H1683       H  0.77767212  0.48621275  0.88829099     0.29000
H1684       H  0.92581259  0.36875331  0.89479126     0.29000
H1685       H  0.85857336  0.38102164  0.90011450     0.19600
H1686       H  0.85925812  0.48254724  0.85025715     0.19600
C1687       C  0.58313005  0.41411194  0.88781906    -0.06300
C1688       C  0.60196075  0.46913277  0.88719188    -0.17400
C1689       C  0.58956282  0.49168437  0.87397926     0.10900
C1690       C  0.55447151  0.45842035  0.86171009    -0.06200
C1691       C  0.53783960  0.40358492  0.86183173    -0.17400
C1692       C  0.55126991  0.38091370  0.87484164     0.11000
S1693       S  0.62788109  0.06544581  0.87302348    -0.32400
S1694       S  0.52449295  0.30918151  0.87451273    -0.32400
H1695       H  0.52070918  0.30236300  0.89189854     0.29000
H1696       H  0.62851933  0.06620663  0.85554174     0.29000
H1697       H  0.62963488  0.49521249  0.89640073     0.19600
H1698       H  0.01230334  0.37885166  0.85235525     0.19600
C1699       C  0.58649550  0.18147338  0.88544941    -0.06300
C1700       C  0.53248903  0.14634960  0.88519345    -0.17400
C1701       C  0.50953578  0.11082961  0.87213059     0.10900
C1702       C  0.54113242  0.10679573  0.85965237    -0.06200
C1703       C  0.59479823  0.14455202  0.85927255    -0.17400
C1704       C  0.61798634  0.18193063  0.87201340     0.11000
S1705       S  0.93911483  0.07712045  0.87132466    -0.32400
S1706       S  0.68825674  0.22663370  0.87152051    -0.32400
H1707       H  0.69633547  0.21730996  0.85488551     0.29000
H1708       H  0.93748383  0.07337707  0.85388067     0.29000
H1709       H  0.50761387  0.14880525  0.89471835     0.19600
H1710       H  0.61945124  0.14202494  0.84978297     0.19600
C1711       C  0.77024828  0.39211282  0.77698677    -0.06300
C1712       C  0.80735615  0.37546035  0.77819443    -0.17400
C1713       C  0.84626672  0.38963582  0.76601158     0.10900
C1714       C  0.84810013  0.42110270  0.75225563    -0.06200
C1715       C  0.81238192  0.43903894  0.75130895    -0.17400
C1716       C  0.77402280  0.42549565  0.76347128     0.11000
S1717       S  0.89250675  0.36703374  0.76887478    -0.32400
S1718       S  0.73198386  0.45335882  0.76149303    -0.32400
H1719       H  0.75721779  0.48786345  0.74787638     0.29000
H1720       H  0.93647547  0.41564225  0.76368374     0.29000
H1721       H  0.80523726  0.34989767  0.78839788     0.19600
H1722       H  0.81461138  0.46388380  0.74084568     0.19600
C1723       C  0.61393925  0.38385816  0.77761797    -0.06300
C1724       C  0.58055714  0.34718756  0.76575698    -0.17400
C1725       C  0.56084559  0.36329665  0.75268454     0.10900
C1726       C  0.57483441  0.41763009  0.75129084    -0.06200
C1727       C  0.60580801  0.45376485  0.76360252    -0.17400
C1728       C  0.62579200  0.43797126  0.77666353     0.11000
S1729       S  0.02108738  0.31605561  0.73712175    -0.32400
S1730       S  0.66996085  0.49106293  0.79020193    -0.32400
H1731       H  0.69736503  0.46607605  0.79546965     0.29000
H1732       H  0.02279841  0.27193634  0.74390940     0.29000
H1733       H  0.57096676  0.30573178  0.76638667     0.19600
H1734       H  0.61552082  0.49533079  0.76287927     0.19600
C1735       C  0.62159459  0.23574571  0.77740781    -0.06300
C1736       C  0.56761234  0.20865983  0.77454961    -0.17400
C1737       C  0.54528866  0.16974810  0.76214271     0.10900
C1738       C  0.57807192  0.15894086  0.75176909    -0.06200
C1739       C  0.63203962  0.18586360  0.75494970    -0.17400
C1740       C  0.65378752  0.22298625  0.76774215     0.11000
S1741       S  0.97598217  0.13831837  0.75956093    -0.32400
S1742       S  0.72282429  0.25131829  0.77111939    -0.32400
H1743       H  0.72267903  0.26567743  0.78774217     0.29000
H1744       H  0.96966105  0.08667463  0.76080165     0.29000
H1745       H  0.54268233  0.21818937  0.78199476     0.19600
H1746       H  0.65783934  0.17748814  0.74753878     0.19600
C1747       C  0.60835345  0.38763858  0.81524124    -0.06300
C1748       C  0.55749898  0.37365537  0.80982604    -0.17400
C1749       C  0.53319559  0.40366473  0.81409403     0.10900
C1750       C  0.55829645  0.44858323  0.82464593    -0.06200
C1751       C  0.60911801  0.46237749  0.83009378    -0.17400
C1752       C  0.63302064  0.43182185  0.82608412     0.11000
S1753       S  0.96916691  0.38233416  0.80620453    -0.32400
S1754       S  0.69669769  0.45316188  0.83435794    -0.32400
H1755       H  0.67829659  0.40610564  0.84396818     0.29000
H1756       H  0.98849725  0.42649608  0.79522336     0.29000
H1757       H  0.53716688  0.34008901  0.80148518     0.19600
H1758       H  0.63259970  0.99729593  0.83878667     0.19600
C1759       C  0.88715091  0.43892611  0.82474378    -0.06300
C1760       C  0.87042115  0.47111703  0.81686524    -0.17400
C1761       C  0.81774439  0.45039383  0.81186332     0.10900
C1762       C  0.77932071  0.39532206  0.81448186    -0.06200
C1763       C  0.79619511  0.36294935  0.82228304    -0.17400
C1764       C  0.84904463  0.38383274  0.82732288     0.11000
S1765       S  0.79990872  0.49579382  0.80256846    -0.32400
S1766       S  0.86796402  0.33934651  0.83676272    -0.32400
H1767       H  0.81944851  0.29176467  0.83509591     0.29000
H1768       H  0.85109770  0.53911643  0.80006448     0.29000
H1769       H  0.89832950  0.51355040  0.81540250     0.19600
H1770       H  0.76824065  0.32056495  0.82381335     0.19600
C1771       C  0.61256403  0.22440145  0.81428611    -0.06300
C1772       C  0.63351117  0.19004303  0.81313412    -0.17400
C1773       C  0.60366729  0.13456121  0.81700858     0.10900
C1774       C  0.55089351  0.11108832  0.82257727    -0.06200
C1775       C  0.52972804  0.14531443  0.82355340    -0.17400
C1776       C  0.55949114  0.20071777  0.81952856     0.11000
S1777       S  0.63648037  0.09646351  0.81580757    -0.32400
S1778       S  0.52723784  0.23923604  0.82110604    -0.32400
H1779       H  0.56903321  0.28160881  0.82950520     0.29000
H1780       H  0.59469611  0.05295768  0.80778942     0.29000
H1781       H  0.67350920  0.20635394  0.80884549     0.19600
H1782       H  0.49005272  0.12912915  0.82822427     0.19600
C1783       C  0.87450558  0.26666423  0.19560479    -0.06300
C1784       C  0.92922195  0.30046863  0.19510993    -0.17400
C1785       C  0.95520119  0.33960912  0.20732603     0.10900
C1786       C  0.92609571  0.34373841  0.22074128    -0.06200
C1787       C  0.87190129  0.30975792  0.22124718    -0.17400
C1788       C  0.84588812  0.27218106  0.20889706     0.11000
S1789       S  0.02471961  0.38409919  0.20467657    -0.32400
S1790       S  0.77575497  0.23367121  0.21028804    -0.32400
H1791       H  0.76826127  0.26170448  0.22328054     0.29000
H1792       H  0.02346325  0.43075839  0.20887163     0.29000
H1793       H  0.95185999  0.29635881  0.18516406     0.19600
H1794       H  0.84956460  0.31307416  0.23144424     0.19600
C1795       C  0.92558473  0.08161234  0.22104304    -0.06300
C1796       C  0.87714138  0.07597209  0.22476338    -0.17400
C1797       C  0.85273549  0.09472157  0.21403561     0.10900
C1798       C  0.87720615  0.11955955  0.19837070    -0.06200
C1799       C  0.92811028  0.12849578  0.19565515    -0.17400
C1800       C  0.95117843  0.10768654  0.20615333     0.11000
S1801       S  0.79381308  0.08914379  0.22275145    -0.32400
S1802       S  0.01158333  0.11300755  0.19915261    -0.32400
H1803       H  0.49467630  0.05309322  0.20632550     0.29000
H1804       H  0.77754252  0.04167058  0.23199532     0.29000
H1805       H  0.85884933  0.05790702  0.23660817     0.19600
H1806       H  0.95139472  0.15306038  0.18547348     0.19600
C1807       C  0.71950729  0.10403703  0.19048138    -0.06300
C1808       C  0.69236288  0.13109834  0.19330636    -0.17400
C1809       C  0.65769216  0.11682837  0.20667956     0.10900
C1810       C  0.64628116  0.07097403  0.21641538    -0.06200
C1811       C  0.66569868  0.03782550  0.21106237    -0.17400
C1812       C  0.70209870  0.05365827  0.19810666     0.11000
S1813       S  0.63319521  0.16146739  0.21101400    -0.32400
S1814       S  0.72539040  0.00828362  0.19266304    -0.32400
H1815       H  0.76319155  0.04094916  0.18085916     0.29000
H1816       H  0.65930483  0.17764281  0.22630634     0.29000
H1817       H  0.70265086  0.16719038  0.18621268     0.19600
H1818       H  0.65437143  0.00028049  0.21741241     0.19600
C1819       C  0.57024289  0.42602659  0.30279074    -0.06300
C1820       C  0.62491590  0.45320289  0.30434092    -0.17400
C1821       C  0.64843035  0.45116799  0.31922299     0.10900
C1822       C  0.61640391  0.42087134  0.33288694    -0.06200
C1823       C  0.56177939  0.39307007  0.33117365    -0.17400
C1824       C  0.53839474  0.39487451  0.31630756     0.11000
S1825       S  0.71911469  0.48945675  0.32077856    -0.32400
S1826       S  0.46776674  0.35585878  0.31459188    -0.32400
H1827       H  0.45707660  0.33314415  0.33066251     0.29000
H1828       H  0.72952877  0.51370321  0.30493058     0.29000
H1829       H  0.64912453  0.47820353  0.29413358     0.19600
H1830       H  0.53731068  0.36818247  0.34135247     0.19600
C1831       C  0.59005514  0.16267565  0.29942253    -0.06300
C1832       C  0.55624813  0.18151382  0.30383604    -0.17400
C1833       C  0.55736027  0.20141655  0.31974750     0.10900
C1834       C  0.59395797  0.20385653  0.33145163    -0.06200
C1835       C  0.62934126  0.18720687  0.32676291    -0.17400
C1836       C  0.62792144  0.16698887  0.31089100     0.11000
S1837       S  0.50886830  0.21985102  0.32471526    -0.32400
S1838       S  0.67412153  0.14534336  0.30606419    -0.32400
H1839       H  0.67100466  0.14844717  0.28868285     0.29000
H1840       H  0.50501017  0.20661868  0.34172556     0.29000
H1841       H  0.52553416  0.17606567  0.29539213     0.19600
H1842       H  0.65924220  0.19133453  0.33535178     0.19600
C1843       C  0.81024111  0.39345740  0.33358175    -0.06300
C1844       C  0.83085706  0.44791807  0.32976391    -0.17400
C1845       C  0.85295656  0.46855568  0.31418402     0.10900
C1846       C  0.85594440  0.43444150  0.30222692    -0.06200
C1847       C  0.83473383  0.37980637  0.30593431    -0.17400
C1848       C  0.81228568  0.35903857  0.32151513     0.11000
S1849       S  0.87415039  0.02647471  0.30896065    -0.32400
S1850       S  0.78882642  0.28887396  0.32548451    -0.32400
H1851       H  0.79700684  0.29411698  0.34275396     0.29000
H1852       H  0.86936331  0.02284734  0.29155445     0.29000
H1853       H  0.82724249  0.47405965  0.33866074     0.19600
H1854       H  0.83874037  0.35386186  0.29705673     0.19600
C1855       C  0.78956858  0.06872727  0.44191974    -0.06300
C1856       C  0.75138898  0.06687789  0.43121203    -0.17400
C1857       C  0.73190205  0.53176667  0.41854451     0.10900
C1858       C  0.75040190  0.49577276  0.41583644    -0.06200
C1859       C  0.78877573  0.99677291  0.42622802    -0.17400
C1860       C  0.80934228  0.03386499  0.43913159     0.11000
S1861       S  0.68717314  0.53681890  0.40442577    -0.32400
S1862       S  0.86240097  0.03547035  0.45060761    -0.32400
H1863       H  0.87999852  0.08433662  0.45871534     0.29000
H1864       H  0.69123501  0.58389446  0.41101492     0.29000
H1865       H  0.73770144  0.09497663  0.43306138     0.19600
H1866       H  0.80330135  0.96928724  0.42451817     0.19600
C1867       C  0.93947274  0.22476026  0.44263534    -0.06300
C1868       C  0.95843468  0.19159715  0.43739593    -0.17400
C1869       C  0.49822596  0.20669829  0.42497990     0.10900
C1870       C  0.51386244  0.25515621  0.41602475    -0.06200
C1871       C  0.99473973  0.29082106  0.42192231    -0.17400
C1872       C  0.95791933  0.27518702  0.43487415     0.11000
S1873       S  0.52530406  0.16387547  0.42071196    -0.32400
S1874       S  0.93705802  0.32128593  0.44189727    -0.32400
H1875       H  0.96213162  0.36013098  0.42928161     0.29000
H1876       H  0.50238277  0.12853071  0.43431344     0.29000
H1877       H  0.94321889  0.15277637  0.44324397     0.19600
H1878       H  0.00921367  0.32985261  0.41620229     0.19600
C1879       C  0.74665211  0.25152946  0.41406326    -0.06300
C1880       C  0.71379387  0.22157814  0.42737265    -0.17400
C1881       C  0.73199192  0.20314167  0.44046153     0.10900
C1882       C  0.78510133  0.21586969  0.44044620    -0.06200
C1883       C  0.81656584  0.24394852  0.42655666    -0.17400
C1884       C  0.79841466  0.26187539  0.41355202     0.11000
S1885       S  0.68498070  0.16016164  0.45591011    -0.32400
S1886       S  0.84272226  0.29532994  0.39630077    -0.32400
H1887       H  0.80387369  0.27436211  0.38402585     0.29000
H1888       H  0.64575472  0.17258109  0.45229601     0.29000
H1889       H  0.67356866  0.21277988  0.42751419     0.19600
H1890       H  0.85552373  0.25036713  0.42526627     0.19600
Zn1891     Zn  0.67015609  0.83216544  0.35603222     1.49700
Zn1892     Zn  0.63408730  0.87068222  0.38362425     1.49400
Zn1893     Zn  0.63126148  0.75763610  0.38338790     1.49100
Zn1894     Zn  0.74221623  0.86964153  0.38330706     1.49500
O1895       O  0.66926355  0.83253624  0.37887971    -1.84300
O1896       O  0.68192043  0.90022361  0.34725954    -0.74900
O1897       O  0.57257795  0.82214139  0.39836801    -0.74700
O1898       O  0.61305525  0.71528179  0.36140296    -0.74200
O1899       O  0.61373532  0.89099547  0.36145309    -0.74900
O1900       O  0.60437354  0.77544914  0.34707789    -0.74500
O1901       O  0.56915126  0.74335272  0.39762994    -0.75100
O1902       O  0.75470713  0.81941844  0.39721093    -0.74500
O1903       O  0.68230477  0.93416549  0.39762157    -0.75200
O1904       O  0.67746848  0.74278507  0.39772879    -0.74600
O1905       O  0.75707791  0.93280196  0.39764839    -0.75100
O1906       O  0.78412209  0.89150372  0.36122302    -0.75000
O1907       O  0.72561212  0.82061432  0.34767583    -0.74800
C1908       C  0.64126299  0.90406833  0.34805223     0.77000
C1909       C  0.55262627  0.77346066  0.40329032     0.77500
C1910       C  0.60061973  0.72993716  0.34800402     0.76500
C1911       C  0.72494559  0.77124340  0.40229359     0.76800
C1912       C  0.72916958  0.95254519  0.40259582     0.78000
C1913       C  0.77009891  0.86252504  0.34817470     0.77000
Zn1914     Zn  0.54073875  0.96132316  0.25352457     1.49700
Zn1915     Zn  0.53536122  0.57842085  0.25235831     1.49400
Zn1916     Zn  0.92970515  0.96257235  0.25316437     1.49100
Zn1917     Zn  0.50839069  0.00326619  0.28376469     1.49500
O1918       O  0.50507564  0.00010855  0.26044071    -1.84300
O1919       O  0.59292301  0.51339286  0.23718698    -0.74900
O1920       O  0.98729791  0.58959112  0.23844013    -0.74700
O1921       O  0.92102008  0.90423343  0.23812896    -0.74200
O1922       O  0.59195695  0.58989095  0.23646380    -0.74900
O1923       O  0.99187609  0.89620626  0.24008718    -0.74500
O1924       O  0.91297938  0.51082518  0.23932866    -0.75100
O1925       O  0.93015060  0.96552862  0.29320589    -0.74500
O1926       O  0.55941029  0.62926611  0.27248412    -0.75200
O1927       O  0.87486768  0.93279506  0.27223787    -0.74600
O1928       O  0.56178358  0.57271425  0.29064210    -0.75100
O1929       O  0.53341955  0.95967726  0.29348294    -0.75000
O1930       O  0.57046274  0.93877518  0.27304777    -0.74800
C1931       C  0.60791326  0.55942848  0.23083232     0.77000
C1932       C  0.94043938  0.55872606  0.23382063     0.77500
C1933       C  0.94744330  0.88234270  0.23381468     0.76500
C1934       C  0.88415890  0.94038318  0.28775549     0.76800
C1935       C  0.57058010  0.61909476  0.28685790     0.78000
C1936       C  0.55992633  0.93923886  0.28844231     0.77000
C1937       C  0.67086756  0.83734895  0.81441001     0.45300
H1938       H  0.67044735  0.83577999  0.82817747    -0.03700
C1939       C  0.67188071  0.83916238  0.78209841     0.45400
H1940       H  0.67197856  0.83908517  0.76826760    -0.03700
C1941       C  0.64078216  0.86508706  0.80678441    -0.17400
C1942       C  0.72831698  0.86891231  0.80633144    -0.17100
C1943       C  0.64323218  0.77949510  0.80628320    -0.17500
C1944       C  0.64253781  0.86511587  0.78966232    -0.17500
C1945       C  0.72662463  0.86915974  0.78923832    -0.17100
C1946       C  0.64603615  0.78265941  0.78928067    -0.17400
C1947       C  0.99899085  0.99967754  0.82519913     0.45300
H1948       H  0.99851761  0.99832165  0.81143269    -0.03700
C1949       C  0.99780761  0.50280444  0.85727544     0.45400
H1950       H  0.99861138  0.50483821  0.87108498    -0.03700
C1951       C  0.52164399  0.55718281  0.83191322    -0.17400
C1952       C  0.94239722  0.96640288  0.83358077    -0.17100
C1953       C  0.53217232  0.97560306  0.83351549    -0.17500
C1954       C  0.51879680  0.55684531  0.84895422    -0.17500
C1955       C  0.94462381  0.96859026  0.85066791    -0.17100
C1956       C  0.53240213  0.98042605  0.85053801    -0.17400
C1957       C  0.66872351  0.83342549  0.52415038     0.45300
H1958       H  0.66819507  0.83611052  0.53792709    -0.03700
C1959       C  0.66870395  0.83099227  0.49196921     0.45400
H1960       H  0.66871245  0.82970087  0.47821112    -0.03700
C1961       C  0.69468446  0.88868490  0.51633993    -0.17400
C1962       C  0.69864829  0.80721203  0.51756059    -0.17100
C1963       C  0.61411441  0.80189951  0.51710165    -0.17500
C1964       C  0.69741209  0.89030302  0.49935526    -0.17500
C1965       C  0.69810165  0.80319071  0.50033555    -0.17100
C1966       C  0.61106103  0.80048590  0.50001586    -0.17400
C1967       C  0.83959361  0.66931947  0.44698258     0.45300
H1968       H  0.84146269  0.66795202  0.43319941    -0.03700
C1969       C  0.83656243  0.66904846  0.47918544     0.45400
H1970       H  0.83544209  0.66907052  0.49294502    -0.03700
C1971       C  0.80859242  0.69462377  0.45355415    -0.17400
C1972       C  0.81310332  0.61334778  0.45431412    -0.17100
C1973       C  0.89359101  0.69997262  0.45460873    -0.17500
C1974       C  0.80739965  0.69700028  0.47079601    -0.17500
C1975       C  0.80914344  0.61062072  0.47128566    -0.17100
C1976       C  0.89476858  0.70026819  0.47171960    -0.17400
Zn1977     Zn  0.79344171  0.59194550  0.60160036     1.49700
Zn1978     Zn  0.84045514  0.67034554  0.57101470     1.49400
Zn1979     Zn  0.80729437  0.70901026  0.60245008     1.49100
Zn1980     Zn  0.90878602  0.69667127  0.60246023     1.49500
O1981       O  0.83753764  0.66685309  0.59461231    -1.84300
O1982       O  0.77067478  0.54096143  0.58197451    -0.74900
O1983       O  0.80668802  0.70752214  0.56228622    -0.74700
O1984       O  0.75357488  0.66654253  0.61955197    -0.74200
O1985       O  0.80426015  0.59939257  0.56094880    -0.74900
O1986       O  0.73220288  0.58157111  0.61563203    -0.74500
O1987       O  0.77782364  0.73329678  0.58388330    -0.75100
O1988       O  0.92680938  0.75920307  0.61709361    -0.74500
O1989       O  0.91195161  0.70792567  0.56216300    -0.75200
O1990       O  0.85789534  0.77065737  0.61602123    -0.74600
O1991       O  0.96282479  0.71921018  0.58378632    -0.75100
O1992       O  0.91149764  0.64590287  0.61870467    -0.75000
O1993       O  0.83145787  0.57420229  0.61858509    -0.74800
C1994       C  0.77837701  0.55178699  0.56645676     0.77000
C1995       C  0.78278682  0.72976672  0.56826110     0.77500
C1996       C  0.72782062  0.61724740  0.62355543     0.76500
C1997       C  0.90212839  0.78230562  0.62192865     0.76800
C1998       C  0.95654874  0.72342818  0.56830698     0.78000
C1999       C  0.87676797  0.60120531  0.62486748     0.77000
Zn2000     Zn  0.57431576  0.53732026  0.71886533     1.49700
Zn2001     Zn  0.96582560  0.53790135  0.71932397     1.49400
Zn2002     Zn  0.50196078  0.50021578  0.69093630     1.49100
Zn2003     Zn  0.96576354  0.92384232  0.71876456     1.49500
O2004       O  0.50181601  0.50018497  0.71374828    -1.84300
O2005       O  0.58768561  0.59939334  0.73373367    -0.74900
O2006       O  0.93621937  0.55512007  0.69885611    -0.74700
O2007       O  0.56020366  0.56676147  0.68230867    -0.74200
O2008       O  0.51368555  0.60186304  0.73304948    -0.74900
O2009       O  0.61790421  0.55771152  0.69700554    -0.74500
O2010       O  0.93791592  0.49598532  0.68178183    -0.75100
O2011       O  0.94408850  0.88097453  0.69720211    -0.74500
O2012       O  0.90954689  0.98709366  0.73461723    -0.75200
O2013       O  0.01168320  0.94058644  0.68249531    -0.74600
O2014       O  0.90496615  0.90753798  0.73373373    -0.75100
O2015       O  0.51247101  0.90831368  0.73279906    -0.75000
O2016       O  0.58665325  0.98742325  0.73373052    -0.74800
C2017       C  0.55945209  0.61876219  0.73874084     0.77000
C2018       C  0.92412612  0.52995651  0.68507864     0.77500
C2019       C  0.60392445  0.56918255  0.68330114     0.76500
C2020       C  0.97084174  0.89482389  0.68370704     0.76800
C2021       C  0.88998933  0.93866428  0.73955468     0.78000
C2022       C  0.55833439  0.93855524  0.73836778     0.77000
C2023       C  0.82848962  0.66631204  0.15813369     0.45300
H2024       H  0.83444424  0.66825272  0.14445577    -0.03700
C2025       C  0.81545637  0.66143752  0.19014616     0.45400
H2026       H  0.80991328  0.66208469  0.20361046    -0.03700
C2027       C  0.76852277  0.63475757  0.16362468    -0.17400
C2028       C  0.85490684  0.63711476  0.16771818    -0.17100
C2029       C  0.85202712  0.72366641  0.16657556    -0.17500
C2030       C  0.76408599  0.63206336  0.18052165    -0.17500
C2031       C  0.84713462  0.63545887  0.18496904    -0.17100
C2032       C  0.84566112  0.71897112  0.18360525    -0.17400
C2033       C  0.99404229  0.50067361  0.14482800     0.45300
H2034       H  0.99220204  0.49703020  0.15857021    -0.03700
C2035       C  0.99700146  0.50980688  0.11266965     0.45400
H2036       H  0.99766101  0.51435569  0.09892893    -0.03700
C2037       C  0.97112584  0.94421656  0.13694280    -0.17400
C2038       C  0.96450001  0.53019443  0.13801057    -0.17100
C2039       C  0.55236520  0.53331927  0.13778825    -0.17500
C2040       C  0.97333381  0.95071995  0.11983703    -0.17500
C2041       C  0.96797601  0.53452161  0.12102378    -0.17100
C2042       C  0.55189399  0.53620532  0.12073462    -0.17400
Zn2043     Zn  0.73301360  0.85826083  0.93434954     1.49700
Zn2044     Zn  0.66596972  0.83831386  0.90353209     1.49400
Zn2045     Zn  0.61411061  0.76101019  0.93296808     1.49100
Zn2046     Zn  0.63752759  0.88137365  0.93474394     1.49500
O2047       O  0.66269161  0.83477091  0.92689853    -1.84300
O2048       O  0.78751289  0.89105330  0.91549036    -0.74900
O2049       O  0.63873455  0.76920415  0.89324970    -0.74700
O2050       O  0.65008325  0.73826901  0.94880415    -0.74200
O2051       O  0.73574072  0.88216607  0.89447134    -0.74900
O2052       O  0.73521291  0.79831118  0.94629419    -0.74500
O2053       O  0.58902971  0.71167938  0.91295065    -0.75100
O2054       O  0.57619434  0.83998271  0.94984229    -0.74500
O2055       O  0.62477102  0.86678368  0.89487401    -0.75200
O2056       O  0.55604378  0.75498788  0.94741711    -0.74600
O2057       O  0.61506915  0.91153074  0.91569452    -0.75100
O2058       O  0.68827993  0.93488105  0.95091919    -0.75000
O2059       O  0.74754499  0.90912784  0.95301208    -0.74800
C2060       C  0.78081775  0.89826624  0.90021840     0.77000
C2061       C  0.60598726  0.72215218  0.89797018     0.77500
C2062       C  0.69736858  0.75645764  0.95298323     0.76500
C2063       C  0.54956453  0.79101222  0.95421941     0.76800
C2064       C  0.60888060  0.89684940  0.90052725     0.78000
C2065       C  0.72579063  0.93450946  0.95852999     0.77000
Zn2066     Zn  0.78942784  0.70968588  0.04826504     1.49700
Zn2067     Zn  0.89790284  0.70853341  0.05061481     1.49400
Zn2068     Zn  0.78853118  0.59783214  0.05187984     1.49100
Zn2069     Zn  0.82638275  0.66366934  0.02222679     1.49500
O2070       O  0.82597385  0.67095169  0.04490104    -1.84300
O2071       O  0.83419356  0.77507965  0.06201289    -0.74900
O2072       O  0.91205719  0.66038354  0.06545119    -0.74700
O2073       O  0.72916378  0.58909140  0.06587141    -0.74200
O2074       O  0.90623215  0.76902434  0.06487694    -0.74900
O2075       O  0.72938810  0.66611750  0.06336828    -0.74500
O2076       O  0.83474108  0.58510507  0.06698692    -0.75100
O2077       O  0.83208041  0.60133772  0.01599951    -0.74500
O2078       O  0.94456446  0.73404474  0.02942202    -0.75200
O2079       O  0.76495308  0.54690785  0.03199694    -0.74600
O2080       O  0.88428269  0.72612024  0.01160705    -0.75100
O2081       O  0.76250572  0.65518375  0.01263510    -0.75000
O2082       O  0.76459751  0.72339632  0.02597531    -0.74800
C2083       C  0.87849702  0.79010140  0.06862953     0.77000
C2084       C  0.88236135  0.61318471  0.07136129     0.77500
C2085       C  0.71157324  0.61986019  0.06985175     0.76500
C2086       C  0.79231996  0.55572354  0.01875803     0.76800
C2087       C  0.93134178  0.74069247  0.01487864     0.78000
C2088       C  0.75282646  0.69316059  0.01324793     0.77000
C2089       C  0.70744649  0.73258953  0.96753689    -0.06300
C2090       C  0.67837672  0.72721051  0.98211199    -0.17400
C2091       C  0.69131664  0.71361751  0.99732818     0.10900
C2092       C  0.73410303  0.70505882  0.99792606    -0.06200
C2093       C  0.76185607  0.70854392  0.98323103    -0.17400
C2094       C  0.74912209  0.72233640  0.96807959     0.11000
S2095       S  0.65213918  0.70803550  0.01535881    -0.32400
S2096       S  0.78763017  0.72659461  0.95000968    -0.32400
H2097       H  0.74752540  0.71317427  0.93843023     0.29000
H2098       H  0.65855491  0.66869554  0.02360974     0.29000
H2099       H  0.64654843  0.73567077  0.98176782     0.19600
H2100       H  0.79468512  0.70164272  0.98362898     0.19600
C2101       C  0.77462628  0.51682254  0.00514888    -0.06300
C2102       C  0.72112474  0.98024368  0.00240592    -0.17400
C2103       C  0.70433809  0.95597335  0.98693899     0.10900
C2104       C  0.74165668  0.95982940  0.97499201    -0.06200
C2105       C  0.79414570  0.48927596  0.97880804    -0.17400
C2106       C  0.81065032  0.51309144  0.99437465     0.11000
S2107       S  0.63468392  0.91922822  0.98352253    -0.32400
S2108       S  0.87818469  0.53812784  0.99977855    -0.32400
H2109       H  0.86947624  0.53299699  0.01708775     0.29000
H2110       H  0.63521474  0.87416781  0.97712938     0.29000
H2111       H  0.69270282  0.98047935  0.01096075     0.19600
H2112       H  0.82228651  0.48728519  0.97055871     0.19600
C2113       C  0.51639226  0.77710478  0.96923744    -0.06300
C2114       C  0.52211478  0.74491194  0.98121740    -0.17400
C2115       C  0.49780987  0.73531895  0.99680078     0.10900
C2116       C  0.96817498  0.75975057  0.00070073    -0.06200
C2117       C  0.96439909  0.79400666  0.98900678    -0.17400
C2118       C  0.98871185  0.80356830  0.97337375     0.11000
S2119       S  0.50433766  0.68959402  0.01055744    -0.32400
S2120       S  0.97867515  0.84549675  0.95894938    -0.32400
H2121       H  0.98036850  0.81870909  0.94457962     0.29000
H2122       H  0.45041913  0.65831095  0.01415361     0.29000
H2123       H  0.54615843  0.72725651  0.97846853     0.19600
H2124       H  0.94037608  0.81163214  0.99182217     0.19600
C2125       C  0.94864372  0.90765274  0.10703212    -0.06300
C2126       C  0.89452661  0.87078223  0.10783132    -0.17400
C2127       C  0.86955141  0.83261163  0.09527015     0.10900
C2128       C  0.89904155  0.83223318  0.08134688    -0.06200
C2129       C  0.95226381  0.86965484  0.08038363    -0.17400
C2130       C  0.97726262  0.90697575  0.09286046     0.11000
S2131       S  0.80093379  0.78432796  0.09811641    -0.32400
S2132       S  0.04671436  0.94981205  0.09050863    -0.32400
H2133       H  0.55564835  0.92374764  0.07725044     0.29000
H2134       H  0.80447754  0.74024484  0.09237844     0.29000
H2135       H  0.87163222  0.87159141  0.11829647     0.19600
H2136       H  0.97494235  0.86854209  0.06989190     0.19600
C2137       C  0.94323566  0.55721113  0.11032069    -0.06300
C2138       C  0.89921514  0.52028472  0.10141670    -0.17400
C2139       C  0.87891523  0.53668931  0.08845416     0.10900
C2140       C  0.90293166  0.59200216  0.08434448    -0.06200
C2141       C  0.94659004  0.62895856  0.09350565    -0.17400
C2142       C  0.96759725  0.61239056  0.10616002     0.11000
S2143       S  0.82524686  0.48552151  0.07663737    -0.32400
S2144       S  0.52705256  0.66385786  0.11551777    -0.32400
H2145       H  0.54267436  0.63127942  0.12364613     0.29000
H2146       H  0.80923657  0.44399971  0.08848839     0.29000
H2147       H  0.88233371  0.47785952  0.10408735     0.19600
H2148       H  0.96521154  0.67146241  0.09066162     0.19600
C2149       C  0.67262856  0.60256894  0.08337937    -0.06300
C2150       C  0.67309909  0.56731905  0.09530226    -0.17400
C2151       C  0.63588161  0.54595962  0.10798412     0.10900
C2152       C  0.59853149  0.56284368  0.10955788    -0.06200
C2153       C  0.60002143  0.60042789  0.09809589    -0.17400
C2154       C  0.63644247  0.62055757  0.08502455     0.11000
S2155       S  0.63823302  0.99197891  0.12053723    -0.32400
S2156       S  0.63286332  0.66537447  0.06999466    -0.32400
H2157       H  0.59830223  0.67599068  0.07912471     0.29000
H2158       H  0.58534770  0.96716001  0.12501832     0.29000
H2159       H  0.70119208  0.55375106  0.09423065     0.19600
H2160       H  0.57009459  0.61124644  0.09866111     0.19600
C2161       C  0.88332219  0.61075470  0.15935379    -0.06300
C2162       C  0.85592613  0.55481278  0.15665239    -0.17400
C2163       C  0.88071853  0.52702396  0.15027238     0.10900
C2164       C  0.93607971  0.55409884  0.14769402    -0.06200
C2165       C  0.96345802  0.60959657  0.15093640    -0.17400
C2166       C  0.93809457  0.63829670  0.15568455     0.11000
S2167       S  0.83833002  0.45696519  0.14563465    -0.32400
S2168       S  0.97948068  0.71017122  0.15731156    -0.32400
H2169       H  0.94690914  0.71945013  0.16782501     0.29000
H2170       H  0.87518676  0.95089816  0.13679974     0.29000
H2171       H  0.81417123  0.53243811  0.15919668     0.19600
H2172       H  0.00552763  0.63163108  0.14923415     0.19600
C2173       C  0.87931580  0.77904706  0.15791628    -0.06300
C2174       C  0.92117105  0.79290128  0.14677343    -0.17400
C2175       C  0.95338750  0.84615886  0.14058260     0.10900
C2176       C  0.94373109  0.88822641  0.14519562    -0.06200
C2177       C  0.90199102  0.87429488  0.15633330    -0.17400
C2178       C  0.86889663  0.82100812  0.16209068     0.11000
S2179       S  0.00941064  0.86001468  0.12787851    -0.32400
S2180       S  0.81154247  0.80991797  0.17357095    -0.32400
H2181       H  0.78288190  0.75393721  0.17219733     0.29000
H2182       H  0.99511626  0.80639094  0.12478349     0.29000
H2183       H  0.92968751  0.76203966  0.14323220     0.19600
H2184       H  0.89346589  0.90498234  0.16010665     0.19600
C2185       C  0.60541090  0.56042458  0.14671491    -0.06300
C2186       C  0.64176329  0.61529190  0.14329296    -0.17400
C2187       C  0.69625288  0.63955418  0.14665829     0.10900
C2188       C  0.71744180  0.60915798  0.15348520    -0.06200
C2189       C  0.68122569  0.55387159  0.15603977    -0.17400
C2190       C  0.62632493  0.53066027  0.15405005     0.11000
S2191       S  0.73684667  0.70936442  0.14136885    -0.32400
S2192       S  0.58716524  0.96260158  0.16173108    -0.32400
H2193       H  0.55097959  0.97257525  0.16999411     0.29000
H2194       H  0.78112571  0.70573339  0.13717635     0.29000
H2195       H  0.62778019  0.63926574  0.13724868     0.19600
H2196       H  0.69563778  0.52859362  0.16050198     0.19600
C2197       C  0.88718546  0.58267334  0.64070711    -0.06300
C2198       C  0.86429194  0.52740798  0.64376312    -0.17400
C2199       C  0.87054254  0.50817691  0.65904559     0.10900
C2200       C  0.90071012  0.54497395  0.67156776    -0.06200
C2201       C  0.91987578  0.59977738  0.66899401    -0.17400
C2202       C  0.91372867  0.61901685  0.65376432     0.11000
S2203       S  0.84949182  0.93187115  0.65941729    -0.32400
S2204       S  0.93909895  0.69025617  0.65206421    -0.32400
H2205       H  0.97958366  0.69784495  0.64105377     0.29000
H2206       H  0.83992903  0.92922417  0.67666195     0.29000
H2207       H  0.84159283  0.49902678  0.63416600     0.19600
H2208       H  0.94288065  0.62834391  0.67851505     0.19600
C2209       C  0.92083338  0.81642541  0.63670612    -0.06300
C2210       C  0.88382578  0.80601901  0.64933896    -0.17400
C2211       C  0.89905346  0.82713189  0.66521510     0.10900
C2212       C  0.95279134  0.86179816  0.66852302    -0.06200
C2213       C  0.98976615  0.87326658  0.65564672    -0.17400
C2214       C  0.97437503  0.85081630  0.63982689     0.11000
S2215       S  0.84754792  0.80893888  0.68039665    -0.32400
S2216       S  0.02280404  0.86818942  0.62350148    -0.32400
H2217       H  0.06679453  0.90309640  0.63292097     0.29000
H2218       H  0.86907160  0.78788432  0.69161610     0.29000
H2219       H  0.84255987  0.77889770  0.64707636     0.19600
H2220       H  0.03089302  0.90078017  0.65790367     0.19600
C2221       C  0.63539531  0.58043396  0.66793283    -0.06300
C2222       C  0.69002220  0.61102768  0.66874849    -0.17400
C2223       C  0.72088540  0.62212430  0.65441469     0.10900
C2224       C  0.69662582  0.60259441  0.63888786    -0.06200
C2225       C  0.64234821  0.57051214  0.63805848    -0.17400
C2226       C  0.61123850  0.55902587  0.65238813     0.11000
S2227       S  0.79110463  0.66081905  0.65679769    -0.32400
S2228       S  0.54104049  0.51590061  0.65043490    -0.32400
H2229       H  0.54127065  0.49819400  0.63417284     0.29000
H2230       H  0.80350994  0.63646281  0.64381591     0.29000
H2231       H  0.70874264  0.62651723  0.68059185     0.19600
H2232       H  0.62440818  0.55544034  0.62610202     0.19600
C2233       C  0.71908189  0.93484572  0.52763336    -0.06300
C2234       C  0.75847809  0.93778901  0.53802196    -0.17400
C2235       C  0.77789448  0.97386485  0.55112649     0.10900
C2236       C  0.75687908  0.50925456  0.55413531    -0.06200
C2237       C  0.71912210  0.50733440  0.54326248    -0.17400
C2238       C  0.69828945  0.96874623  0.53058401     0.11000
S2239       S  0.82904652  0.97495310  0.56353905    -0.32400
S2240       S  0.64442745  0.96602656  0.51929006    -0.32400
H2241       H  0.62618533  0.91629600  0.51163855     0.29000
H2242       H  0.85389738  0.53088512  0.56758122     0.29000
H2243       H  0.77358650  0.91087367  0.53606402     0.19600
H2244       H  0.70476048  0.53501686  0.54489614     0.19600
C2245       C  0.57006378  0.77800215  0.52915694    -0.06300
C2246       C  0.55054550  0.81057915  0.53468384    -0.17400
C2247       C  0.51606345  0.79527255  0.54821366     0.10900
C2248       C  0.00086228  0.74631007  0.55672731    -0.06200
C2249       C  0.01945631  0.71316832  0.55105612    -0.17400
C2250       C  0.55423954  0.72840031  0.53739748     0.11000
S2251       S  0.49219203  0.83943595  0.55420733    -0.32400
S2252       S  0.57234615  0.67983727  0.53075441    -0.32400
H2253       H  0.60155937  0.70695585  0.51652575     0.29000
H2254       H  0.98545172  0.82459179  0.57177811     0.29000
H2255       H  0.56300812  0.84872655  0.52862850     0.19600
H2256       H  0.00553376  0.67428856  0.55689644     0.19600
C2257       C  0.72314476  0.78821432  0.53022116    -0.06300
C2258       C  0.69306201  0.76297648  0.54467903    -0.17400
C2259       C  0.71117168  0.74418681  0.55745632     0.10900
C2260       C  0.76183076  0.75198690  0.55624682    -0.06200
C2261       C  0.79320832  0.77879142  0.54236050    -0.17400
C2262       C  0.77540622  0.79809931  0.52959714     0.11000
S2263       S  0.66679773  0.70864768  0.57448894    -0.32400
S2264       S  0.82426843  0.83791385  0.51419706    -0.32400
H2265       H  0.79610380  0.85978414  0.50764500     0.29000
H2266       H  0.68025258  0.66840492  0.57563431     0.29000
H2267       H  0.65454164  0.75750824  0.54628651     0.19600
H2268       H  0.83284185  0.78573896  0.54161316     0.19600
C2269       C  0.72721657  0.94482501  0.49032771    -0.06300
C2270       C  0.69928962  0.96729921  0.48319070    -0.17400
C2271       C  0.72397674  0.52051400  0.47803261     0.10900
C2272       C  0.77879902  0.55596881  0.47999042    -0.06200
C2273       C  0.80668066  0.53398750  0.48731587    -0.17400
C2274       C  0.78220821  0.98008609  0.49198841     0.11000
S2275       S  0.68159359  0.54080017  0.46872055    -0.32400
S2276       S  0.82319435  0.95791310  0.50121573    -0.32400
H2277       H  0.87060412  0.00723404  0.50094027     0.29000
H2278       H  0.71603656  0.59536648  0.47099649     0.29000
H2279       H  0.65722099  0.94389845  0.48291988     0.19600
H2280       H  0.84864583  0.55801494  0.48761246     0.19600
C2281       C  0.94805074  0.72754159  0.48078651    -0.06300
C2282       C  0.98944874  0.77720366  0.47472892    -0.17400
C2283       C  0.54277797  0.79797507  0.47898941     0.10900
C2284       C  0.55679673  0.77313346  0.49146380    -0.06200
C2285       C  0.51492080  0.72419404  0.49790988    -0.17400
C2286       C  0.96199487  0.70247429  0.49322059     0.11000
S2287       S  0.59194956  0.85467323  0.46742061    -0.32400
S2288       S  0.91267616  0.64470230  0.50438217    -0.32400
H2289       H  0.94560746  0.64150060  0.51630745     0.29000
H2290       H  0.55921038  0.85455017  0.45478790     0.29000
H2291       H  0.98026043  0.79981252  0.46630991     0.19600
H2292       H  0.52363454  0.70180411  0.50656654     0.19600
C2293       C  0.72284396  0.77427227  0.49146415    -0.06300
C2294       C  0.71573907  0.72568946  0.49828855    -0.17400
C2295       C  0.74543949  0.70207299  0.49299365     0.10900
C2296       C  0.78198801  0.72530998  0.47966369    -0.06200
C2297       C  0.78929470  0.77407920  0.47292549    -0.17400
C2298       C  0.75982544  0.79784129  0.47828818     0.11000
S2299       S  0.73452098  0.64144512  0.50321844    -0.32400
S2300       S  0.77240576  0.85996664  0.46872245    -0.32400
H2301       H  0.80650095  0.86187821  0.45608623     0.29000
H2302       H  0.70616990  0.64408988  0.51696229     0.29000
H2303       H  0.68719084  0.70648631  0.50820496     0.19600
H2304       H  0.81823460  0.79360043  0.46313265     0.19600
C2305       C  0.82458013  0.92085322  0.88819973    -0.06300
C2306       C  0.86057624  0.90322967  0.88919564    -0.17400
C2307       C  0.89677410  0.91394878  0.87638068     0.10900
C2308       C  0.89872906  0.94480742  0.86239657    -0.06200
C2309       C  0.86077466  0.96012147  0.86105301    -0.17400
C2310       C  0.82474813  0.94975559  0.87391350     0.11000
S2311       S  0.93556042  0.88228697  0.87731100    -0.32400
S2312       S  0.78233240  0.97750672  0.87176858    -0.32400
H2313       H  0.77971791  0.98610047  0.88887460     0.29000
H2314       H  0.92043509  0.85963590  0.89333138     0.29000
H2315       H  0.85821982  0.87826105  0.89963554     0.19600
H2316       H  0.86174054  0.98421374  0.85057703     0.19600
C2317       C  0.58549864  0.91636742  0.88855381    -0.06300
C2318       C  0.60460752  0.97142517  0.88785056    -0.17400
C2319       C  0.59212217  0.99385853  0.87461348     0.10900
C2320       C  0.55713661  0.96047299  0.86232677    -0.06200
C2321       C  0.54016600  0.90559344  0.86257727    -0.17400
C2322       C  0.55310169  0.88298113  0.87570598     0.11000
S2323       S  0.62569027  0.56327507  0.87237756    -0.32400
S2324       S  0.52479761  0.81100482  0.87575058    -0.32400
H2325       H  0.52131992  0.80516616  0.89317153     0.29000
H2326       H  0.62576716  0.56413403  0.85490074     0.29000
H2327       H  0.63243647  0.99754475  0.89701872     0.19600
H2328       H  0.01449047  0.88132647  0.85312479     0.19600
C2329       C  0.58513552  0.68055020  0.88523266    -0.06300
C2330       C  0.53117468  0.64511007  0.88516732    -0.17400
C2331       C  0.50797237  0.60921210  0.87220586     0.10900
C2332       C  0.53933236  0.60523828  0.85962468    -0.06200
C2333       C  0.59297210  0.64314061  0.85912108    -0.17400
C2334       C  0.61634869  0.68088041  0.87174593     0.11000
S2335       S  0.93866014  0.57564346  0.87160315    -0.32400
S2336       S  0.68653907  0.72595809  0.87103936    -0.32400
H2337       H  0.69424780  0.71630481  0.85440209     0.29000
H2338       H  0.93642647  0.57171182  0.85416382     0.29000
H2339       H  0.50651452  0.64753703  0.89477707     0.19600
H2340       H  0.61751203  0.64056359  0.84960898     0.19600
C2341       C  0.77253234  0.89197154  0.77761062    -0.06300
C2342       C  0.80899368  0.87442315  0.77862669    -0.17400
C2343       C  0.84729033  0.88776370  0.76626405     0.10900
C2344       C  0.84941268  0.91965066  0.75257041    -0.06200
C2345       C  0.81438618  0.93856657  0.75186145    -0.17400
C2346       C  0.77632747  0.92532669  0.76410521     0.11000
S2347       S  0.89241295  0.86359813  0.76884939    -0.32400
S2348       S  0.73569758  0.95485840  0.76243689    -0.32400
H2349       H  0.74296875  0.96631676  0.74528120     0.29000
H2350       H  0.93695529  0.91199537  0.76383854     0.29000
H2351       H  0.80675400  0.84872480  0.78880419     0.19600
H2352       H  0.81718934  0.96447602  0.74163471     0.19600
C2353       C  0.61660249  0.88476430  0.77817347    -0.06300
C2354       C  0.58336743  0.84806106  0.76630109    -0.17400
C2355       C  0.56395479  0.86410670  0.75313864     0.10900
C2356       C  0.57765206  0.91832151  0.75171545    -0.06200
C2357       C  0.60847262  0.95455949  0.76403983    -0.17400
C2358       C  0.62838522  0.93886554  0.77716758     0.11000
S2359       S  0.02506561  0.81554982  0.73735548    -0.32400
S2360       S  0.67203410  0.99195269  0.79079731    -0.32400
H2361       H  0.69918027  0.96691972  0.79625515     0.29000
H2362       H  0.02951274  0.77255192  0.74374795     0.29000
H2363       H  0.57380385  0.80663486  0.76695140     0.19600
H2364       H  0.61800437  0.99606453  0.76330015     0.19600
C2365       C  0.62344141  0.73621149  0.77787931    -0.06300
C2366       C  0.56962202  0.70994731  0.77481679    -0.17400
C2367       C  0.54726760  0.67136617  0.76232489     0.10900
C2368       C  0.57985393  0.65987967  0.75208624    -0.06200
C2369       C  0.63363291  0.68569298  0.75554578    -0.17400
C2370       C  0.65541308  0.72264592  0.76840522     0.11000
S2371       S  0.97662511  0.64139079  0.75984192    -0.32400
S2372       S  0.72413728  0.74970717  0.77210755    -0.32400
H2373       H  0.72396446  0.76526862  0.78858481     0.29000
H2374       H  0.96868329  0.58911004  0.76114366     0.29000
H2375       H  0.54483085  0.71991967  0.78216260     0.19600
H2376       H  0.65923603  0.67667165  0.74827868     0.19600
C2377       C  0.61084425  0.88837510  0.81584370    -0.06300
C2378       C  0.56007792  0.87456088  0.81039574    -0.17400
C2379       C  0.53577799  0.90454813  0.81469082     0.10900
C2380       C  0.56084721  0.94940286  0.82527272    -0.06200
C2381       C  0.61158132  0.96301760  0.83077535    -0.17400
C2382       C  0.63542782  0.93238557  0.82676303     0.11000
S2383       S  0.97313186  0.88577744  0.80597437    -0.32400
S2384       S  0.69887542  0.95335183  0.83516234    -0.32400
H2385       H  0.68023686  0.90596389  0.84461834     0.29000
H2386       H  0.99460309  0.92886180  0.79453365     0.29000
H2387       H  0.53977886  0.84110003  0.80201685     0.19600
H2388       H  0.63013634  0.49669596  0.83808503     0.19600
C2389       C  0.88947517  0.93919280  0.82492515    -0.06300
C2390       C  0.87229921  0.97136484  0.81731370    -0.17400
C2391       C  0.81946584  0.95049271  0.81251148     0.10900
C2392       C  0.78137916  0.89527857  0.81504909    -0.06200
C2393       C  0.79871718  0.86291951  0.82258535    -0.17400
C2394       C  0.85171319  0.88400257  0.82746262     0.11000
S2395       S  0.80102160  0.99581820  0.80353448    -0.32400
S2396       S  0.87134441  0.83964719  0.83656239    -0.32400
H2397       H  0.82128713  0.79343575  0.83710018     0.29000
H2398       H  0.85188165  0.04019685  0.80156451     0.29000
H2399       H  0.90000017  0.01388078  0.81592978     0.19600
H2400       H  0.77107305  0.82040245  0.82397397     0.19600
C2401       C  0.61332629  0.72438715  0.81470374    -0.06300
C2402       C  0.63335201  0.68924925  0.81341847    -0.17400
C2403       C  0.60261255  0.63364555  0.81704153     0.10900
C2404       C  0.54984234  0.61077127  0.82256857    -0.06200
C2405       C  0.52961063  0.64579783  0.82371347    -0.17400
C2406       C  0.56022727  0.70131260  0.81987455     0.11000
S2407       S  0.63435270  0.59456647  0.81560694    -0.32400
S2408       S  0.52898320  0.74076285  0.82157770    -0.32400
H2409       H  0.57102754  0.78241837  0.83011270     0.29000
H2410       H  0.59238518  0.55208282  0.80731059     0.29000
H2411       H  0.67332612  0.70503169  0.80918755     0.19600
H2412       H  0.48998112  0.63011334  0.82836696     0.19600
C2413       C  0.87216811  0.76363886  0.19586331    -0.06300
C2414       C  0.92708527  0.79633309  0.19547871    -0.17400
C2415       C  0.95356115  0.83527769  0.20773016     0.10900
C2416       C  0.92471095  0.84029973  0.22104847    -0.06200
C2417       C  0.87046516  0.80731106  0.22149067    -0.17400
C2418       C  0.84406382  0.77013517  0.20910378     0.11000
S2419       S  0.02336606  0.87838539  0.20527558    -0.32400
S2420       S  0.77411690  0.73347345  0.21050291    -0.32400
H2421       H  0.76783563  0.76769006  0.22150308     0.29000
H2422       H  0.02359403  0.92561181  0.20975340     0.29000
H2423       H  0.94947658  0.79166254  0.18557525     0.19600
H2424       H  0.84831752  0.81107742  0.23167074     0.19600
C2425       C  0.91756626  0.57835613  0.22143464    -0.06300
C2426       C  0.86754690  0.56957878  0.22443242    -0.17400
C2427       C  0.84352862  0.58809877  0.21344702     0.10900
C2428       C  0.86958759  0.61475078  0.19816699    -0.06200
C2429       C  0.92136944  0.62587350  0.19608369    -0.17400
C2430       C  0.94466196  0.60642464  0.20694917     0.11000
S2431       S  0.78327071  0.58093406  0.22143059    -0.32400
S2432       S  0.00812980  0.61693382  0.20111470    -0.32400
H2433       H  0.50068749  0.56982909  0.20690653     0.29000
H2434       H  0.76677262  0.53312482  0.23050972     0.29000
H2435       H  0.84800004  0.54997522  0.23598656     0.19600
H2436       H  0.94535053  0.65162942  0.18619781     0.19600
C2437       C  0.71355607  0.60486409  0.18949978    -0.06300
C2438       C  0.68937466  0.63474008  0.19270866    -0.17400
C2439       C  0.65591146  0.62239233  0.20638569     0.10900
C2440       C  0.64203108  0.57545554  0.21588248    -0.06200
C2441       C  0.65761111  0.53963091  0.20998656    -0.17400
C2442       C  0.69332610  0.55372232  0.19689735     0.11000
S2443       S  0.63689913  0.67094769  0.21156553    -0.32400
S2444       S  0.71248052  0.50521827  0.19118065    -0.32400
H2445       H  0.75529994  0.53858554  0.18092417     0.29000
H2446       H  0.66134611  0.68208943  0.22716692     0.29000
H2447       H  0.70171008  0.67165140  0.18581493     0.19600
H2448       H  0.64408092  0.50122964  0.21607678     0.19600
C2449       C  0.58068308  0.92009537  0.30155810    -0.06300
C2450       C  0.63492348  0.94781879  0.30392964    -0.17400
C2451       C  0.65605340  0.94566208  0.31928267     0.10900
C2452       C  0.62192887  0.91458451  0.33246736    -0.06200
C2453       C  0.56779290  0.88525534  0.32976757    -0.17400
C2454       C  0.54689185  0.88759788  0.31448361     0.11000
S2455       S  0.72617861  0.98531855  0.32210926    -0.32400
S2456       S  0.47669152  0.84995920  0.31159377    -0.32400
H2457       H  0.46316957  0.82697646  0.32761974     0.29000
H2458       H  0.73818484  0.01423557  0.30703591     0.29000
H2459       H  0.66036796  0.97405083  0.29412436     0.19600
H2460       H  0.54183655  0.85963834  0.33958038     0.19600
C2461       C  0.58705809  0.65772605  0.30053501    -0.06300
C2462       C  0.55429474  0.67819536  0.30461820    -0.17400
C2463       C  0.55510671  0.69840547  0.32047823     0.10900
C2464       C  0.59011618  0.69917595  0.33252858    -0.06200
C2465       C  0.62414180  0.68040400  0.32822195    -0.17400
C2466       C  0.62338092  0.66036017  0.31236332     0.11000
S2467       S  0.50852394  0.71989552  0.32485806    -0.32400
S2468       S  0.66948786  0.63830570  0.30787639    -0.32400
H2469       H  0.67038092  0.64580110  0.29054892     0.29000
H2470       H  0.50258274  0.70619821  0.34186512     0.29000
H2471       H  0.52497536  0.67454795  0.29586169     0.19600
H2472       H  0.65292955  0.68321852  0.33706066     0.19600
C2473       C  0.80035264  0.88125003  0.33252018    -0.06300
C2474       C  0.82332445  0.93590450  0.32854693    -0.17400
C2475       C  0.84414933  0.95518789  0.31273207     0.10900
C2476       C  0.84318310  0.91951643  0.30056492    -0.06200
C2477       C  0.81856864  0.86461611  0.30425027    -0.17400
C2478       C  0.79761905  0.84515375  0.32011479     0.11000
S2479       S  0.87605904  0.53864696  0.31017193    -0.32400
S2480       S  0.77128267  0.77449863  0.32402974    -0.32400
H2481       H  0.78583003  0.78031914  0.34084596     0.29000
H2482       H  0.86980154  0.53359247  0.29282428     0.29000
H2483       H  0.82377454  0.96371055  0.33766799     0.19600
H2484       H  0.81985237  0.83744439  0.29523032     0.19600
C2485       C  0.78887248  0.56787163  0.44267058    -0.06300
C2486       C  0.75067942  0.56648742  0.43207669    -0.17400
C2487       C  0.73233978  0.03125562  0.41786635     0.10900
C2488       C  0.75061700  0.99491371  0.41544122    -0.06200
C2489       C  0.78847499  0.49702487  0.42654824    -0.17400
C2490       C  0.80881754  0.53332500  0.43964186     0.11000
S2491       S  0.68756758  0.03553373  0.40357505    -0.32400
S2492       S  0.86171186  0.53438214  0.45106920    -0.32400
H2493       H  0.87897547  0.58266310  0.45948998     0.29000
H2494       H  0.68956446  0.08141716  0.41036862     0.29000
H2495       H  0.73687677  0.59439696  0.43413729     0.19600
H2496       H  0.80315450  0.46975411  0.42462346     0.19600
C2497       C  0.93929310  0.72218199  0.44312178    -0.06300
C2498       C  0.95973718  0.68941596  0.43880237    -0.17400
C2499       C  0.49452777  0.70419475  0.42543850     0.10900
C2500       C  0.51151651  0.75320089  0.41662463    -0.06200
C2501       C  0.99181915  0.78448210  0.42124329    -0.17400
C2502       C  0.95651565  0.77102710  0.43452281     0.11000
S2503       S  0.51815850  0.65874621  0.42058243    -0.32400
S2504       S  0.93627276  0.81816894  0.44090777    -0.32400
H2505       H  0.96655866  0.85887659  0.42925993     0.29000
H2506       H  0.48929676  0.61941954  0.43277054     0.29000
H2507       H  0.94667660  0.65250836  0.44564255     0.19600
H2508       H  0.00438031  0.82181319  0.41463360     0.19600
C2509       C  0.74504545  0.74876303  0.41462519    -0.06300
C2510       C  0.71287165  0.72016535  0.42820721    -0.17400
C2511       C  0.73124067  0.70145247  0.44114687     0.10900
C2512       C  0.78430846  0.71396692  0.44090883    -0.06200
C2513       C  0.81494966  0.74064098  0.42673414    -0.17400
C2514       C  0.79622736  0.75774955  0.41370904     0.11000
S2515       S  0.68467462  0.65898618  0.45679529    -0.32400
S2516       S  0.83887195  0.78824276  0.39590024    -0.32400
H2517       H  0.79861292  0.76675741  0.38408558     0.29000
H2518       H  0.63921397  0.65325315  0.44936204     0.29000
H2519       H  0.67315261  0.71284102  0.42869989     0.19600
H2520       H  0.85358422  0.74643379  0.42519598     0.19600
loop_ 
_geom_bond_atom_site_label_1 
_geom_bond_atom_site_label_2 
_geom_bond_distance 
_geom_bond_site_symmetry_2 
_ccdc_geom_bond_type 
Zn1           O5   1.847       .  S
Zn1           O6   1.951       .  S
Zn1          O10   1.943       .  S
Zn1          O17   1.952       .  S
Zn2           O5   1.907       .  S
Zn2           O7   2.011       .  S
Zn2           O9   2.061       .  S
Zn2          O13   2.013       .  S
Zn3           O5   1.904       .  S
Zn3           O8   2.051       .  S
Zn3          O11   2.001       .  S
Zn3          O14   2.004       .  S
Zn4           O5   1.902       .  S
Zn4          O12   2.009       .  S
Zn4          O15   1.993       .  S
Zn4          O16   2.045       .  S
O6           C18   1.263       .  A
O7           C19   1.277       .  A
O8           C20   1.278       .  A
O9           C18   1.279       .  A
O10          C20   1.262       .  A
O11          C19   1.273       .  A
O12          C21   1.276       .  A
O13          C22   1.276       .  A
O14          C21   1.275       .  A
O15          C22   1.275       .  A
O16          C23   1.276       .  A
O17          C23   1.264       .  A
C18         C562   1.478       .  S
C19         C610   1.490       .  S
C20         C574   1.466       .  S
C21         C619   1.470       .  S
C22         C598   1.479       .  S
C23         C583   1.465       .  S
Zn24         O28   1.937       .  S
Zn24         O40   2.057       .  S
Zn24        O659   1.977       .  S
Zn24       O1293   2.020   1_455  S
Zn25        O658   1.961   1_545  S
Zn25         O32   1.984       .  S
Zn25         O36   2.066       .  S
Zn25       O1290   2.015   1_455  S
Zn26       O1288   1.906       .  S
Zn26         O31   1.991       .  S
Zn26         O37   2.047       .  S
Zn26        O664   2.011       .  S
Zn27         O28   1.861       .  S
Zn27         O39   1.949       .  S
Zn27       O1295   1.941   1_455  S
Zn27        O668   1.945       .  S
O28        Zn655   1.927       .  S
O28       Zn1286   1.913   1_455  S
O29        Zn654   1.983   1_545  S
O29          C41   1.272       .  A
O30       Zn1285   2.003       .  S
O30          C42   1.271       .  A
O31          C43   1.274       .  A
O32          C41   1.270       .  A
O33       Zn1284   2.022       .  S
O33          C43   1.274       .  A
O34        Zn656   2.014   1_545  S
O34          C42   1.274       .  A
O35       Zn1287   1.946       .  S
O35          C44   1.265       .  A
O36          C45   1.276       .  A
O37          C44   1.277       .  A
O38        Zn657   1.906   1_445  S
O38          C45   1.258       .  A
O39          C46   1.264       .  A
O40          C46   1.278       .  A
C41         C550   1.479       .  S
C42         C535   1.471       .  S
C43         C526   1.478       .  S
C44         C586   1.465       .  S
C45         C571   1.458       .  S
C46         C559   1.471       .  S
C47          H48   1.108       .  S
C47          C53   1.587       .  S
C47          C52   1.597       .  S
C47          C51   1.589       .  S
C49          H50   1.112       .  S
C49          C55   1.518       .  S
C49          C54   1.526       .  S
C49          C56   1.518       .  S
C51          C54   1.376       .  D
C51         C487   1.534       .  S
C52          C55   1.377       .  D
C52         C502   1.533       .  S
C53          C56   1.369       .  D
C53         C511   1.527       .  S
C54         C463   1.484       .  S
C55         C451   1.491       .  S
C56         C475   1.482       .  S
C57          H58   1.108       .  S
C57          C62   1.592       .  S
C57        C1323   1.588       .  S
C57        C1951   1.586       .  S
C59          H60   1.112       .  S
C59         C695   1.525   1_545  S
C59        C1324   1.525       .  S
C59        C1956   1.526   1_545  S
C61        C1947   1.585   1_445  S
C61          C64   1.372       .  D
C61         C514   1.527       .  S
C62          C65   1.377       .  D
C62         C499   1.528       .  S
C63        C1317   1.588   1_455  S
C63          C66   1.376       .  D
C63         C490   1.537       .  S
C64        C1319   1.526   1_455  S
C64         C442   1.487       .  S
C65         C689   1.525       .  S
C65         C418   1.496       .  S
C66        C1949   1.526   1_455  S
C66         C430   1.483       .  S
C67          H68   1.111       .  S
C67          C73   1.515       .  S
C67          C72   1.519       .  S
C67          C71   1.510       .  S
C69          H70   1.107       .  S
C69          C75   1.598       .  S
C69          C74   1.597       .  S
C69          C76   1.602       .  S
C71          C74   1.368       .  D
C71         C343   1.476       .  S
C72          C75   1.390       .  D
C72         C367   1.508       .  S
C73          C76   1.378       .  D
C73         C355   1.475       .  S
C74         C379   1.536       .  S
C75         C403   1.532       .  S
C76         C394   1.557       .  S
C77          H78   1.111       .  S
C77          C83   1.520       .  S
C77          C82   1.513       .  S
C77          C81   1.524       .  S
C79          H80   1.107       .  S
C79          C85   1.592       .  S
C79          C84   1.599       .  S
C79          C86   1.598       .  S
C81          C84   1.390       .  D
C81         C622   1.510       .  S
C82          C85   1.367       .  D
C82         C595   1.477       .  S
C83          C86   1.379       .  D
C83         C607   1.482       .  S
C84         C406   1.533       .  S
C85         C382   1.532       .  S
C86         C391   1.555       .  S
Zn87         O91   1.958       .  S
Zn87         O92   2.033       .  S
Zn87         O96   2.017       .  S
Zn87        O103   1.997       .  S
Zn88         O91   1.901       .  S
Zn88         O93   1.940       .  S
Zn88         O95   1.949       .  S
Zn88         O99   1.951       .  S
Zn89         O91   1.941       .  S
Zn89         O94   1.980       .  S
Zn89         O97   2.031       .  S
Zn89        O100   1.987       .  S
Zn90         O91   1.945       .  S
Zn90         O98   1.994       .  S
Zn90        O101   2.033       .  S
Zn90        O102   1.988       .  S
O92         C104   1.276       .  A
O93         C105   1.264       .  A
O94         C106   1.268       .  A
O95         C104   1.264       .  A
O96         C106   1.273       .  A
O97         C105   1.275       .  A
O98         C107   1.270       .  A
O99         C108   1.264       .  A
O100        C107   1.271       .  A
O101        C108   1.274       .  A
O102        C109   1.270       .  A
O103        C109   1.271       .  A
C104        C346   1.455       .  S
C105        C370   1.464       .  S
C106        C334   1.462       .  S
C107        C319   1.470       .  S
C108        C358   1.457       .  S
C109        C307   1.470       .  S
Zn110       O114   1.900   1_545  S
Zn110       O115   2.024       .  S
Zn110       O119   2.074       .  S
Zn110       O756   2.001   1_545  S
Zn111      O1374   1.893   1_545  S
Zn111       O116   2.045       .  S
Zn111      O1378   2.007       .  S
Zn111       O752   1.973   1_545  S
Zn112       O114   1.835       .  S
Zn112       O117   1.943   1_565  S
Zn112      O1380   1.941   1_455  S
Zn112      O2013   1.955       .  S
Zn113      O2004   1.914       .  S
Zn113       O121   2.041       .  S
Zn113       O124   1.994       .  S
Zn113      O1385   1.981       .  S
O114      Zn1371   1.891   1_465  S
O114      Zn2003   1.913   1_455  S
O115        C127   1.279       .  A
O116        C128   1.278       .  A
O117        C129   1.260       .  A
O118      Zn1371   2.008   1_455  S
O118        C127   1.274       .  A
O119        C129   1.279       .  A
O120      Zn1372   1.942       .  S
O120        C128   1.263   1_565  A
O121        C130   1.275       .  A
O122       Zn741   1.976       .  S
O122        C131   1.273       .  A
O123      Zn2002   1.956       .  S
O123        C130   1.264       .  A
O124        C131   1.273       .  A
O125      Zn1373   1.980   1_455  S
O125        C132   1.271       .  A
O126       Zn740   2.002       .  S
O126        C132   1.276       .  A
C127        C478   1.490       .  S
C128        C310   1.470       .  S
C129        C331   1.477       .  S
C130        C322   1.477       .  S
C131        C454   1.462       .  S
C132        C466   1.469       .  S
C133        H134   1.109       .  S
C133        C139   1.592       .  S
C133        C138   1.607       .  S
C133        C137   1.588       .  S
C135        H136   1.091       .  S
C135        C141   1.523       .  S
C135        C140   1.531       .  S
C135        C142   1.525       .  S
C137        C140   1.364       .  D
C137        C298   1.546       .  S
C138        C141   1.404       .  D
C138        C271   1.539       .  S
C139        C142   1.377       .  D
C139        C283   1.542       .  S
C140        C547   1.473       .  S
C141        C538   1.535       .  S
C142        C523   1.499       .  S
C143        H144   1.108   1_545  S
C143        C148   1.594       .  S
C143       C1409   1.597       .  S
C143        C777   1.600   1_545  S
C145        H146   1.112       .  S
C145        C151   1.517       .  S
C145        C780   1.521   1_545  S
C145       C1412   1.522       .  S
C147        C773   1.601       .  S
C147        C150   1.387       .  D
C147        C286   1.543       .  S
C148        C151   1.369       .  D
C148        C274   1.537       .  S
C149       C1403   1.597   1_455  S
C149        C152   1.377       .  D
C149        C295   1.537       .  S
C150        C775   1.524       .  S
C150        C235   1.502       .  S
C151        C247   1.478       .  S
C152       C1405   1.523       .  S
C152        C262   1.489       .  S
Zn153       O157   1.934       .  S
Zn153       O158   2.055       .  S
Zn153       O162   2.014       .  S
Zn153       O169   1.999       .  S
Zn154       O157   1.880       .  S
Zn154       O159   1.920       .  S
Zn154       O161   1.924       .  S
Zn154       O165   1.915       .  S
Zn155       O157   1.933       .  S
Zn155       O160   1.981       .  S
Zn155       O163   2.040       .  S
Zn155       O166   1.993       .  S
Zn156       O157   1.939       .  S
Zn156       O164   1.990       .  S
Zn156       O167   2.039       .  S
Zn156       O168   2.010       .  S
O158        C170   1.279       .  A
O159        C171   1.260       .  A
O160        C172   1.269       .  A
O161        C170   1.261       .  A
O162        C172   1.275       .  A
O163        C171   1.277       .  A
O164        C173   1.269       .  A
O165        C174   1.260       .  A
O166        C173   1.272       .  A
O167        C174   1.277       .  A
O168        C175   1.275       .  A
O169        C175   1.273       .  A
C170        C415   1.470       .  S
C171        C439   1.464       .  S
C172        C199   1.465       .  S
C173        C223   1.469       .  S
C174        C427   1.459       .  S
C175        C214   1.476       .  S
Zn176       O180   1.923       .  S
Zn176       O181   2.011       .  S
Zn176       O185   1.979       .  S
Zn176       O192   2.057       .  S
Zn177       O180   1.906       .  S
Zn177       O182   2.021       .  S
Zn177       O184   2.001       .  S
Zn177       O188   2.062       .  S
Zn178       O180   1.909       .  S
Zn178       O183   1.985       .  S
Zn178       O186   2.003       .  S
Zn178       O189   2.047       .  S
Zn179       O180   1.840       .  S
Zn179       O187   1.949       .  S
Zn179       O190   1.934       .  S
Zn179       O191   1.952       .  S
O181        C193   1.275       .  A
O182        C194   1.278       .  A
O183        C195   1.274       .  A
O184        C193   1.277       .  A
O185        C195   1.270       .  A
O186        C194   1.273       .  A
O187        C196   1.263       .  A
O188        C197   1.279       .  A
O189        C196   1.277       .  A
O190        C197   1.263       .  A
O191        C198   1.266       .  A
O192        C198   1.279       .  A
C193        C238   1.469       .  S
C194        C250   1.487       .  S
C195        C259   1.466       .  S
C196        C211   1.467       .  S
C197        C226   1.466       .  S
C198        C202   1.470   1_554  S
C199        C200   1.408       .  A
C199        C204   1.404       .  A
C200        C201   1.399       .  A
C200        H209   1.084       .  S
C201        C202   1.408       .  A
C201        S205   1.803   1_556  S
C202        C203   1.409       .  A
C203        C204   1.394       .  A
C203        H210   1.084       .  S
C204        S206   1.804       .  S
S205        H208   1.406       .  S
S206        H207   1.407       .  S
C211        C216   1.414   1_554  A
C211        C842   1.399   1_545  A
C212        C213   1.395   1_554  A
C212        C841   1.399       .  A
C212        H221   1.084       .  S
C213        C214   1.418       .  A
C213        S217   1.801       .  S
C214        C845   1.403       .  A
C215        C216   1.397   1_565  A
C215        C844   1.402       .  A
C215        H222   1.084       .  S
C216        S218   1.805       .  S
S217        H220   1.407       .  S
S218        H219   1.407   1_556  S
C223        C224   1.406       .  A
C223       C1488   1.409   1_455  A
C224        C225   1.395       .  A
C224        H233   1.084       .  S
C225       C1486   1.409   1_456  A
C225        S229   1.803   1_556  S
C226        C227   1.407   1_554  A
C226       C1485   1.410   1_554  A
C227        C228   1.398       .  A
C227        H234   1.084       .  S
C228       C1483   1.410       .  A
C228        S230   1.803       .  S
S229        H232   1.407   1_455  S
S230        H231   1.407       .  S
C235        C236   1.407       .  A
C235        C240   1.423       .  A
C236        C237   1.405       .  A
C236        H245   1.083       .  S
C237        C238   1.415       .  A
C237        S241   1.802       .  S
C238        C239   1.388       .  A
C239        C240   1.391       .  A
C239        H246   1.084       .  S
C240        S242   1.792       .  S
S241        H244   1.407       .  S
S242       H1503   1.407       .  S
H243       S1502   1.407       .  S
C247        C248   1.401       .  A
C247        C252   1.414       .  A
C248        C249   1.401       .  A
C248        H257   1.083   1_545  S
C249        C250   1.418       .  A
C249        S253   1.808   1_545  S
C250        C251   1.406       .  A
C251        C252   1.397       .  A
C251        H258   1.084       .  S
C252       S1514   1.807       .  S
S253        H256   1.407       .  S
S254       C1512   1.807   1_455  S
S254        H255   1.400       .  S
C259        C260   1.400       .  A
C259        C264   1.407       .  A
C260        C261   1.389       .  A
C260        H269   1.085       .  S
C261        C262   1.420       .  A
C261        S895   1.801   1_545  S
C262        C263   1.406       .  A
C263        C264   1.396       .  A
C263        H270   1.076       .  S
C264        S266   1.810       .  S
S265        C891   1.800       .  S
S265        H268   1.394       .  S
S266        H267   1.407       .  S
C271        C272   1.412       .  A
C271        C276   1.424       .  A
C272        C273   1.424       .  A
C272        H281   1.082       .  S
C273        C274   1.426       .  A
C273        S277   1.803   1_545  S
C274        C275   1.410       .  A
C275        C276   1.420       .  A
C275        H282   1.080       .  S
C276        S278   1.805       .  S
S277        H910   1.400       .  S
S278        H279   1.402       .  S
H280        S907   1.401       .  S
C283        C284   1.405       .  A
C283        C288   1.432       .  A
C284        C285   1.425       .  A
C284        H293   1.079       .  S
C285        C286   1.431       .  A
C285        S289   1.802       .  S
C286        C287   1.403       .  A
C287        C288   1.418       .  A
C287        H294   1.080       .  S
C288        S290   1.804       .  S
S289        H292   1.407       .  S
S290        H291   1.401       .  S
C295        C296   1.418       .  A
C295        C300   1.415       .  A
C296        C297   1.422       .  A
C296        H305   1.083       .  S
C297        C298   1.420       .  A
C297        S301   1.795       .  S
C298        C299   1.418       .  A
C299        C300   1.419       .  A
C299        H306   1.076       .  S
C300        S932   1.799   1_545  S
S301        H304   1.402       .  S
S302        C930   1.800       .  S
S302        H303   1.402       .  S
C307        C308   1.401       .  A
C307        C312   1.416       .  A
C308        C309   1.398       .  A
C308        H317   1.084   1_545  S
C309        C310   1.417       .  A
C309        S943   1.805   1_545  S
C310        C311   1.399       .  A
C311        C312   1.393       .  A
C311        H318   1.084       .  S
C312        S314   1.802       .  S
S313        C939   1.805       .  S
S313        H316   1.407       .  S
S314        H315   1.407       .  S
C319        C320   1.404       .  A
C319        C324   1.407       .  A
C320        C321   1.393       .  A
C320        H329   1.084       .  S
C321        C322   1.413       .  A
C321        S325   1.801       .  S
C322        C323   1.410       .  A
C323        C324   1.401       .  A
C323        H330   1.083       .  S
C324        S326   1.807       .  S
S325        H328   1.407       .  S
S326        H327   1.407       .  S
C331        C332   1.399       .  A
C331        C336   1.426       .  A
C332        C333   1.396       .  A
C332        H341   1.084       .  S
C333        C334   1.414       .  A
C333        S337   1.806       .  S
C334        C335   1.393       .  A
C335        C336   1.400       .  A
C335        H342   1.083       .  S
C336        S338   1.812       .  S
S337        H340   1.406       .  S
S338        H339   1.407       .  S
C343        C344   1.406       .  A
C343        C348   1.413       .  A
C344        C345   1.392       .  A
C344        H353   1.084       .  S
C345        C976   1.405       .  A
C345        S349   1.804       .  S
C346        C347   1.401       .  A
C346        C975   1.406   1_545  A
C347        C978   1.394   1_545  A
C347        H354   1.085       .  S
C348        C977   1.396       .  A
C348        S350   1.806       .  S
S349        H982   1.406       .  S
S350        H351   1.400       .  S
H352        S979   1.404   1_545  S
C355        C356   1.399       .  A
C355        C360   1.420       .  A
C356        C357   1.393       .  A
C356        H365   1.081       .  S
C357       C1618   1.409       .  A
C357        S361   1.805   1_455  S
C358        C359   1.398       .  A
C358       C1617   1.409       .  A
C359       C1620   1.397       .  A
C359        H366   1.084       .  S
C360       C1619   1.397       .  A
C360        S362   1.813       .  S
S361       H1624   1.406       .  S
S362        H363   1.402       .  S
H364       S1621   1.407       .  S
C367        C368   1.413       .  A
C367        C372   1.423       .  A
C368        C369   1.392       .  A
C368        H377   1.075       .  S
C369        C370   1.401       .  A
C369        S373   1.804       .  S
C370        C371   1.400       .  A
C371        C372   1.395       .  A
C371        H378   1.085       .  S
C372        S374   1.797       .  S
S373        H376   1.407       .  S
S374        H375   1.380       .  S
C379        C380   1.404       .  A
C379        C384   1.425       .  A
C380       C1011   1.414       .  A
C380        H389   1.075       .  S
C381        C382   1.426       .  A
C381       C1010   1.415   1_545  A
C381        S385   1.795       .  S
C382        C383   1.400       .  A
C383       C1014   1.415   1_545  A
C383        H390   1.075       .  S
C384       C1013   1.415       .  A
C384        S386   1.793       .  S
S385        H388   1.391       .  S
S386        H387   1.407       .  S
C391        C392   1.417       .  A
C391        C396   1.413       .  A
C392       C1653   1.420       .  A
C392        H401   1.062       .  S
C393        C394   1.413       .  A
C393       C1652   1.419   1_455  A
C393        S397   1.796       .  S
C394        C395   1.421       .  A
C395       C1656   1.425   1_455  A
C395        H402   1.069       .  S
C396       C1655   1.424       .  A
C396        S398   1.798       .  S
S397        H400   1.407       .  S
S398        H399   1.407       .  S
C403        C404   1.415       .  A
C403        C408   1.417       .  A
C404        C405   1.418       .  A
C404        H413   1.082       .  S
C405        C406   1.419       .  A
C405        S409   1.804       .  S
C406        C407   1.417       .  A
C407        C408   1.419       .  A
C407        H414   1.081       .  S
C408        S410   1.805       .  S
S409        H412   1.407       .  S
S410        H411   1.406       .  S
C415        C416   1.394       .  A
C415        C420   1.417       .  A
C416        C417   1.396       .  A
C416        H425   1.083       .  S
C417        C418   1.414       .  A
C417        S421   1.791       .  S
C418        C419   1.402       .  A
C419        C420   1.397       .  A
C419        H426   1.081       .  S
C420        S422   1.804       .  S
S421        H424   1.407       .  S
S422        H423   1.407       .  S
C427        C428   1.393       .  A
C427        C432   1.417       .  A
C428        C429   1.389       .  A
C428        H437   1.085       .  S
C429        C430   1.410       .  A
C429       S1063   1.788       .  S
C430        C431   1.400       .  A
C431        C432   1.394       .  A
C431       H1698   1.084       .  S
C432        S434   1.805       .  S
S433       C1059   1.787   1_545  S
S433        H436   1.406       .  S
S434        H435   1.407       .  S
H438       C1691   1.084       .  S
C439        C440   1.394       .  A
C439        C444   1.416       .  A
C440        C441   1.390       .  A
C440        H449   1.084       .  S
C441        C442   1.410       .  A
C441       S1705   1.787   1_455  S
C442        C443   1.400       .  A
C443        C444   1.398       .  A
C443        H450   1.079       .  S
C444        S446   1.810       .  S
S445       C1701   1.787       .  S
S445        H448   1.407       .  S
S446        H447   1.408       .  S
C451        C452   1.405       .  A
C451        C456   1.416       .  A
C452        C453   1.397       .  A
C452        H461   1.081       .  S
C453        C454   1.411       .  A
C453        S457   1.802       .  S
C454        C455   1.392       .  A
C455        C456   1.389       .  A
C455        H462   1.083       .  S
C456        S458   1.795       .  S
S457        H460   1.407       .  S
S458        H459   1.406       .  S
C463        C464   1.404       .  A
C463        C468   1.418       .  A
C464        C465   1.396       .  A
C464        H473   1.080       .  S
C465        C466   1.410       .  A
C465       S1729   1.809       .  S
C466        C467   1.402       .  A
C467        C468   1.391       .  A
C467        H474   1.084       .  S
C468        S470   1.803       .  S
S469       C1725   1.799       .  S
S469        H472   1.408       .  S
S470        H471   1.395       .  S
C475        C476   1.399       .  A
C475        C480   1.411       .  A
C476        C477   1.401       .  A
C476        H485   1.084       .  S
C477        C478   1.423       .  A
C477       S1741   1.802   1_455  S
C478        C479   1.404       .  A
C479        C480   1.395       .  A
C479        H486   1.084       .  S
C480        S482   1.799       .  S
S481       C1737   1.802       .  S
S481        H484   1.408       .  S
S482        H483   1.401       .  S
C487        C488   1.418       .  A
C487        C492   1.414       .  A
C488        C489   1.417       .  A
C488        H497   1.083       .  S
C489        C490   1.414       .  A
C489       S1753   1.791   1_455  S
C490        C491   1.419       .  A
C491        C492   1.416       .  A
C491       H1128   1.082       .  S
C492        S494   1.794       .  S
S493       C1749   1.791       .  S
S493        H496   1.407       .  S
S494        H495   1.406       .  S
H498       C1121   1.082       .  S
C499        C500   1.404       .  A
C499        C504   1.423       .  A
C500        C501   1.419       .  A
C500        H509   1.083       .  S
C501        C502   1.426       .  A
C501        S505   1.802       .  S
C502        C503   1.408       .  A
C503        C504   1.424       .  A
C503        H510   1.082       .  S
C504        S506   1.805       .  S
S505        H508   1.406       .  S
S506        H507   1.406       .  S
C511        C512   1.411       .  A
C511        C516   1.419       .  A
C512        C513   1.417       .  A
C512        H521   1.081       .  S
C513        C514   1.419       .  A
C513        S517   1.797       .  S
C514        C515   1.412       .  A
C515        C516   1.417       .  A
C515        H522   1.083   1_455  S
C516        S518   1.795       .  S
S517        H520   1.404       .  S
S518        H519   1.405       .  S
C523        C524   1.406       .  A
C523        C528   1.416       .  A
C524        C525   1.406       .  A
C524        H533   1.083       .  S
C525        C526   1.417       .  A
C525        S529   1.802       .  S
C526        C527   1.393       .  A
C527        C528   1.390       .  A
C527        H534   1.083       .  S
C528        S530   1.790       .  S
S529        H532   1.407       .  S
S530        H531   1.406       .  S
C535        C536   1.386       .  A
C535        C540   1.405       .  A
C536        C537   1.400       .  A
C536        H545   1.084       .  S
C537        C538   1.445       .  A
C537        S541   1.802       .  S
C538        C539   1.407       .  A
C539        C540   1.397       .  A
C539        H546   1.066       .  S
C540        S542   1.801       .  S
S541        H544   1.408       .  S
S542       H1803   1.407       .  S
H543       S1802   1.406       .  S
C547        C548   1.390       .  A
C547        C552   1.411       .  A
C548        C549   1.391       .  A
C548        H557   1.084       .  S
C549        C550   1.420       .  A
C549        S553   1.800       .  S
C550        C551   1.408       .  A
C551        C552   1.394       .  A
C551        H558   1.083       .  S
C552        S554   1.813       .  S
S553        H556   1.408       .  S
S554        H555   1.399       .  S
C559        C560   1.401       .  A
C559        C564   1.412       .  A
C560        C561   1.403       .  A
C560        H569   1.083       .  S
C561        C562   1.417       .  A
C561        S565   1.810       .  S
C562        C563   1.403       .  A
C563        C564   1.400       .  A
C563        H570   1.083       .  S
C564        S566   1.810   1_455  S
S565        H568   1.407       .  S
S566        H567   1.407       .  S
C571        C572   1.400       .  A
C571        C576   1.413       .  A
C572        C573   1.399       .  A
C572        H581   1.084       .  S
C573        C574   1.415       .  A
C573        S577   1.805       .  S
C574        C575   1.400       .  A
C575        C576   1.394       .  A
C575        H582   1.084       .  S
C576        S578   1.806       .  S
S577        H580   1.407       .  S
S578        H579   1.407       .  S
C583        C584   1.402       .  A
C583        C588   1.413       .  A
C584        C585   1.395       .  A
C584        H593   1.084       .  S
C585        C586   1.413       .  A
C585       S1219   1.805       .  S
C586        C587   1.402       .  A
C587        C588   1.396       .  A
C587        H594   1.084       .  S
C588        S590   1.804       .  S
S589       C1215   1.806   1_545  S
S589        H592   1.407       .  S
S590        H591   1.407       .  S
C595        C596   1.403       .  A
C595        C600   1.411       .  A
C596       C1227   1.398       .  A
C596        H605   1.083       .  S
C597        C598   1.412       .  A
C597       C1226   1.397       .  A
C597        S601   1.810       .  S
C598       C1229   1.409       .  A
C599        C600   1.396   1_565  A
C599       C1228   1.407       .  A
C599        H606   1.084       .  S
C600        S602   1.806       .  S
S601        H604   1.407       .  S
S602        H603   1.398       .  S
C607        C608   1.397       .  A
C607        C612   1.411       .  A
C608       C1869   1.402       .  A
C608        H617   1.079       .  S
C609        C610   1.423   1_655  A
C609       C1868   1.398       .  A
C609        S613   1.811   1_655  S
C610       C1871   1.409   1_455  A
C611        C612   1.399       .  A
C611       C1870   1.409       .  A
C611        H618   1.082       .  S
C612        S614   1.814       .  S
S613        H616   1.407   1_455  S
S614        H615   1.406       .  S
C619        C620   1.402       .  A
C619        C624   1.402       .  A
C620        C621   1.404       .  A
C620        H629   1.083       .  S
C621        C622   1.421       .  A
C621        S625   1.799       .  S
C622        C623   1.410       .  A
C623        C624   1.391       .  A
C623        H630   1.074       .  S
C624        S626   1.805       .  S
S625        H628   1.407       .  S
S626        H627   1.407       .  S
Zn631       O635   1.838       .  S
Zn631       O636   1.946       .  S
Zn631       O640   1.947       .  S
Zn631       O647   1.937       .  S
Zn632       O635   1.893       .  S
Zn632       O637   1.997       .  S
Zn632       O639   2.055       .  S
Zn632       O643   2.006       .  S
Zn633       O635   1.905       .  S
Zn633       O638   2.063       .  S
Zn633       O641   2.019       .  S
Zn633       O644   2.002       .  S
Zn634       O635   1.899       .  S
Zn634       O642   1.998       .  S
Zn634       O645   2.006       .  S
Zn634       O646   2.055       .  S
O636        C648   1.262       .  A
O637        C649   1.276       .  A
O638        C650   1.279       .  A
O639        C648   1.279       .  A
O640        C650   1.263       .  A
O641        C649   1.276       .  A
O642        C651   1.276       .  A
O643        C652   1.275       .  A
O644        C651   1.275       .  A
O645        C652   1.276       .  A
O646        C653   1.278       .  A
O647        C653   1.261       .  A
C648       C1192   1.474       .  S
C649       C1240   1.489       .  S
C650       C1204   1.473       .  S
C651       C1249   1.465       .  S
C652       C1228   1.481       .  S
C653       C1213   1.470       .  S
Zn654       O658   1.971       .  S
Zn654      O1923   2.018   1_455  S
Zn654       O670   2.066       .  S
Zn655      O1920   1.994   1_455  S
Zn655       O662   1.978       .  S
Zn655       O666   2.056       .  S
Zn656      O1918   1.939   1_565  S
Zn656       O661   2.000       .  S
Zn656       O667   2.057       .  S
Zn657       O658   1.881   1_655  S
Zn657      O1925   1.905       .  S
Zn657       O669   1.912   1_655  S
O658      Zn1916   1.942   1_455  S
O659        C671   1.273       .  A
O660      Zn1915   1.998       .  S
O660        C672   1.271       .  A
O661        C673   1.275       .  A
O662        C671   1.270       .  A
O663      Zn1914   2.014       .  S
O663        C673   1.272       .  A
O664        C672   1.275       .  A
O665      Zn1917   1.916   1_565  S
O665        C674   1.260       .  A
O666        C675   1.277       .  A
O667        C674   1.277       .  A
O668        C675   1.264       .  A
O669        C676   1.259       .  A
O670        C676   1.276       .  A
C671       C1180   1.477       .  S
C672       C1165   1.471       .  S
C673       C1156   1.479       .  S
C674       C1216   1.462       .  S
C675       C1201   1.467       .  S
C676       C1189   1.463       .  S
C677        H678   1.108       .  S
C677        C683   1.589       .  S
C677        C682   1.598       .  S
C677        C681   1.591       .  S
C679        H680   1.112       .  S
C679        C685   1.517       .  S
C679        C684   1.527       .  S
C679        C686   1.518       .  S
C681        C684   1.378       .  D
C681       C1117   1.536       .  S
C682        C685   1.376       .  D
C682       C1132   1.533       .  S
C683        C686   1.369       .  D
C683       C1141   1.527       .  S
C684       C1093   1.486       .  S
C685       C1081   1.491       .  S
C686       C1105   1.483       .  S
C687        H688   1.108       .  S
C687       C1953   1.589       .  S
C687        C692   1.591       .  S
C687       C1321   1.586   1_565  S
C689        H690   1.112       .  S
C689       C1954   1.526       .  S
C689       C1326   1.526       .  S
C691       C1317   1.586   1_455  S
C691        C694   1.371       .  D
C691       C1144   1.527       .  S
C692        C695   1.376       .  D
C692       C1129   1.528       .  S
C693       C1947   1.588   1_455  S
C693        C696   1.376       .  D
C693       C1120   1.539       .  S
C694       C1949   1.525   1_455  S
C694       C1072   1.488       .  S
C695       C1048   1.494       .  S
C696       C1319   1.526   1_465  S
C696       C1060   1.481       .  S
C697        H698   1.111       .  S
C697        C703   1.514       .  S
C697        C702   1.518       .  S
C697        C701   1.509       .  S
C699        H700   1.107       .  S
C699        C705   1.598       .  S
C699        C704   1.597       .  S
C699        C706   1.599       .  S
C701        C704   1.367       .  D
C701        C973   1.472       .  S
C702        C705   1.390       .  D
C702        C997   1.507       .  S
C703        C706   1.377       .  D
C703        C985   1.477       .  S
C704       C1009   1.537       .  S
C705       C1033   1.532       .  S
C706       C1024   1.551       .  S
C707        H708   1.111       .  S
C707        C713   1.516       .  S
C707        C712   1.510       .  S
C707        C711   1.521       .  S
C709        H710   1.107       .  S
C709        C715   1.595       .  S
C709        C714   1.599       .  S
C709        C716   1.599       .  S
C711        C714   1.389       .  D
C711       C1252   1.507       .  S
C712        C715   1.368       .  D
C712       C1225   1.476       .  S
C713        C716   1.378       .  D
C713       C1237   1.482       .  S
C714       C1036   1.532       .  S
C715       C1012   1.532       .  S
C716       C1021   1.553       .  S
Zn717       O721   1.956       .  S
Zn717       O722   2.036       .  S
Zn717       O726   2.014       .  S
Zn717       O733   1.997       .  S
Zn718       O721   1.901       .  S
Zn718       O723   1.933       .  S
Zn718       O725   1.952       .  S
Zn718       O729   1.954       .  S
Zn719       O721   1.943       .  S
Zn719       O724   1.977       .  S
Zn719       O727   2.029       .  S
Zn719       O730   1.991       .  S
Zn720       O721   1.942       .  S
Zn720       O728   1.991       .  S
Zn720       O731   2.030       .  S
Zn720       O732   1.989       .  S
O722        C734   1.276       .  A
O723        C735   1.263       .  A
O724        C736   1.268       .  A
O725        C734   1.265       .  A
O726        C736   1.273       .  A
O727        C735   1.274       .  A
O728        C737   1.270       .  A
O729        C738   1.264       .  A
O730        C737   1.271       .  A
O731        C738   1.274       .  A
O732        C739   1.270       .  A
O733        C739   1.271       .  A
C734        C976   1.457       .  S
C735       C1000   1.462       .  S
C736        C964   1.461       .  S
C737        C949   1.469       .  S
C738        C988   1.457       .  S
C739        C937   1.472       .  S
Zn740       O744   1.903       .  S
Zn740       O745   2.026       .  S
Zn740       O749   2.070       .  S
Zn741      O2004   1.893       .  S
Zn741       O746   2.045       .  S
Zn741      O2008   2.008       .  S
Zn742       O744   1.839       .  S
Zn742       O747   1.945       .  S
Zn742      O2010   1.948   1_455  S
Zn742      O1383   1.957       .  S
Zn743      O1374   1.913       .  S
Zn743       O751   2.044       .  S
Zn743       O754   2.005       .  S
Zn743      O2015   1.987       .  S
O744      Zn2001   1.895   1_455  S
O744      Zn1373   1.916   1_455  S
O745        C757   1.279       .  A
O746        C758   1.278       .  A
O747        C759   1.262       .  A
O748      Zn2001   2.008   1_455  S
O748        C757   1.273       .  A
O749        C759   1.279       .  A
O750      Zn2002   1.944       .  S
O750        C758   1.264       .  A
O751        C760   1.276       .  A
O752        C761   1.273       .  A
O753      Zn1372   1.956       .  S
O753        C760   1.266       .  A
O754        C761   1.274       .  A
O755      Zn2003   1.987   1_455  S
O755        C762   1.273       .  A
O756        C762   1.277       .  A
C757       C1108   1.491       .  S
C758        C940   1.470       .  S
C759        C961   1.475       .  S
C760        C952   1.479       .  S
C761       C1084   1.465       .  S
C762       C1096   1.470       .  S
C763        H764   1.109       .  S
C763        C769   1.594       .  S
C763        C768   1.607       .  S
C763        C767   1.588       .  S
C765        H766   1.096       .  S
C765        C771   1.521       .  S
C765        C770   1.533       .  S
C765        C772   1.525       .  S
C767        C770   1.362       .  D
C767        C928   1.546       .  S
C768        C771   1.399       .  D
C768        C901   1.542       .  S
C769        C772   1.379       .  D
C769        C913   1.539       .  S
C770       C1177   1.472       .  S
C771       C1168   1.524       .  S
C772       C1153   1.504       .  S
C773        H774   1.108       .  S
C773       C2039   1.597       .  S
C773        C778   1.596       .  S
C775        H776   1.111       .  S
C775        C781   1.519       .  S
C775       C2042   1.522       .  S
C777        C780   1.385       .  D
C777        C916   1.539       .  S
C778        C781   1.370       .  D
C778        C904   1.540       .  S
C779       C2033   1.596   1_455  S
C779        C782   1.374       .  D
C779        C925   1.539       .  S
C780        C865   1.500       .  S
C781        C877   1.482       .  S
C782       C2035   1.522   1_455  S
C782        C892   1.483       .  S
Zn783       O787   1.933       .  S
Zn783       O788   2.045       .  S
Zn783       O792   2.006       .  S
Zn783       O799   1.993       .  S
Zn784       O787   1.881       .  S
Zn784       O789   1.927       .  S
Zn784       O791   1.926       .  S
Zn784       O795   1.912       .  S
Zn785       O787   1.931       .  S
Zn785       O790   1.977       .  S
Zn785       O793   2.035       .  S
Zn785       O796   1.998       .  S
Zn786       O787   1.940       .  S
Zn786       O794   1.990       .  S
Zn786       O797   2.031       .  S
Zn786       O798   2.006       .  S
O788        C800   1.278       .  A
O789        C801   1.261       .  A
O790        C802   1.269       .  A
O791        C800   1.261       .  A
O792        C802   1.274       .  A
O793        C801   1.276       .  A
O794        C803   1.269       .  A
O795        C804   1.260       .  A
O796        C803   1.272       .  A
O797        C804   1.276       .  A
O798        C805   1.274       .  A
O799        C805   1.272       .  A
C800       C1045   1.467       .  S
C801       C1069   1.464       .  S
C802        C829   1.464       .  S
C803        C853   1.471       .  S
C804       C1057   1.456       .  S
C805        C844   1.474       .  S
Zn806       O810   1.924       .  S
Zn806       O811   2.015       .  S
Zn806       O815   1.974       .  S
Zn806       O822   2.054       .  S
Zn807       O810   1.897       .  S
Zn807       O812   2.029       .  S
Zn807       O814   2.003       .  S
Zn807       O818   2.069       .  S
Zn808       O810   1.902       .  S
Zn808       O813   1.985       .  S
Zn808       O816   2.006       .  S
Zn808       O819   2.053       .  S
Zn809       O810   1.836       .  S
Zn809       O817   1.952       .  S
Zn809       O820   1.937       .  S
Zn809       O821   1.944       .  S
O811        C823   1.275       .  A
O812        C824   1.279       .  A
O813        C825   1.275       .  A
O814        C823   1.277       .  A
O815        C825   1.269       .  A
O816        C824   1.273       .  A
O817        C826   1.264       .  A
O818        C827   1.280       .  A
O819        C826   1.277       .  A
O820        C827   1.263       .  A
O821        C828   1.265       .  A
O822        C828   1.279       .  A
C823        C868   1.473       .  S
C824        C880   1.488       .  S
C825        C889   1.467       .  S
C826        C841   1.470       .  S
C827        C856   1.471       .  S
C828        C832   1.463   1_554  S
C829        C830   1.409       .  A
C829        C834   1.405       .  A
C830        C831   1.397       .  A
C830        H839   1.084       .  S
C831        C832   1.406       .  A
C831        S835   1.804   1_556  S
C832        C833   1.407       .  A
C833        C834   1.393       .  A
C833        H840   1.085       .  S
C834        S836   1.804       .  S
S835        H838   1.406       .  S
S836        H837   1.407       .  S
C841        C846   1.415   1_554  A
C842        C843   1.395   1_554  A
C842        H851   1.084       .  S
C843        C844   1.417       .  A
C843        S847   1.802       .  S
C845        C846   1.398       .  A
C845        H852   1.084       .  S
C846        S848   1.804       .  S
S847        H850   1.407       .  S
S848        H849   1.407   1_556  S
C853        C854   1.405       .  A
C853       C2118   1.411   1_455  A
C854        C855   1.395   1_455  A
C854        H863   1.084       .  S
C855       C2116   1.411   1_556  A
C855        S859   1.803   1_656  S
C856       C2115   1.411   1_554  A
C856        C857   1.408   1_554  A
C857        C858   1.399       .  A
C857        H864   1.084       .  S
C858       C2113   1.410       .  A
C858        S860   1.804       .  S
S859        H862   1.406   1_455  S
S860        H861   1.407       .  S
C865        C866   1.406       .  A
C865        C870   1.421       .  A
C866        C867   1.406       .  A
C866        H875   1.083       .  S
C867        C868   1.416       .  A
C867        S871   1.802       .  S
C868        C869   1.390       .  A
C869        C870   1.390       .  A
C869        H876   1.083       .  S
C870        S872   1.794       .  S
S871        H874   1.406       .  S
S872       H2133   1.406       .  S
H873       S2132   1.407       .  S
C877        C878   1.401       .  A
C877        C882   1.415       .  A
C878        C879   1.402       .  A
C878        H887   1.083       .  S
C879        C880   1.418       .  A
C879        S883   1.808       .  S
C880        C881   1.406       .  A
C881        C882   1.398       .  A
C881        H888   1.084       .  S
C882       S2144   1.807       .  S
S883        H886   1.408       .  S
S884       C2142   1.807   1_455  S
S884        H885   1.400       .  S
C889        C890   1.400       .  A
C889        C894   1.410       .  A
C890        C891   1.387       .  A
C890        H899   1.084       .  S
C891        C892   1.418       .  A
C892        C893   1.404       .  A
C893        C894   1.392       .  A
C893        H900   1.079       .  S
C894        S896   1.800       .  S
S895        H898   1.396       .  S
S896        H897   1.408       .  S
C901        C902   1.413       .  A
C901        C906   1.426       .  A
C902        C903   1.426       .  A
C902        H911   1.083       .  S
C903        C904   1.426       .  A
C903        S907   1.803       .  S
C904        C905   1.410       .  A
C905        C906   1.421       .  A
C905        H912   1.081       .  S
C906        S908   1.805       .  S
S908        H909   1.401       .  S
C913        C914   1.404       .  A
C913        C918   1.432       .  A
C914        C915   1.423       .  A
C914        H923   1.078       .  S
C915        C916   1.429       .  A
C915        S919   1.802       .  S
C916        C917   1.403       .  A
C917        C918   1.417       .  A
C917        H924   1.080       .  S
C918        S920   1.804       .  S
S919        H922   1.407       .  S
S920        H921   1.401       .  S
C925        C926   1.419       .  A
C925        C930   1.415       .  A
C926        C927   1.424       .  A
C926        H935   1.083       .  S
C927        C928   1.421       .  A
C927        S931   1.796       .  S
C928        C929   1.415       .  A
C929        C930   1.420       .  A
C929        H936   1.074       .  S
S931        H934   1.403       .  S
S932        H933   1.403       .  S
C937        C938   1.402       .  A
C937        C942   1.417       .  A
C938        C939   1.397       .  A
C938        H947   1.084       .  S
C939        C940   1.416       .  A
C940        C941   1.399       .  A
C941        C942   1.393       .  A
C941        H948   1.084       .  S
C942        S944   1.802       .  S
S943        H946   1.407       .  S
S944        H945   1.407       .  S
C949        C950   1.403       .  A
C949        C954   1.407       .  A
C950        C951   1.394       .  A
C950        H959   1.084       .  S
C951        C952   1.414       .  A
C951        S955   1.801       .  S
C952        C953   1.410       .  A
C953        C954   1.401       .  A
C953        H960   1.083       .  S
C954        S956   1.807       .  S
S955        H958   1.408       .  S
S956        H957   1.407       .  S
C961        C962   1.399       .  A
C961        C966   1.424       .  A
C962        C963   1.397       .  A
C962        H971   1.084       .  S
C963        C964   1.415       .  A
C963        S967   1.806       .  S
C964        C965   1.392       .  A
C965        C966   1.399       .  A
C965        H972   1.083       .  S
C966        S968   1.811       .  S
S967        H970   1.406       .  S
S968        H969   1.407       .  S
C973        C974   1.405       .  A
C973        C978   1.412       .  A
C974        C975   1.392       .  A
C974        H983   1.084       .  S
C975        S979   1.806       .  S
C976        C977   1.402       .  A
C977        H984   1.084       .  S
C978        S980   1.806       .  S
S980        H981   1.400       .  S
C985        C986   1.399       .  A
C985        C990   1.421       .  A
C986        C987   1.394       .  A
C986        H995   1.081       .  S
C987       C2248   1.409       .  A
C987        S991   1.805   1_455  S
C988       C2247   1.409       .  A
C988        C989   1.397       .  A
C989       C2250   1.396       .  A
C989        H996   1.084       .  S
C990       C2249   1.396       .  A
C990        S992   1.814       .  S
S991       H2254   1.407       .  S
S992        H993   1.401       .  S
H994       S2251   1.406       .  S
C997        C998   1.414       .  A
C997       C1002   1.422       .  A
C998        C999   1.391       .  A
C998       H1007   1.075       .  S
C999       C1000   1.400       .  A
C999       S1003   1.804       .  S
C1000      C1001   1.400       .  A
C1001      C1002   1.393       .  A
C1001      H1008   1.085       .  S
C1002      S1004   1.796       .  S
S1003      H1006   1.407       .  S
S1004      H1005   1.379       .  S
C1009      C1010   1.405       .  A
C1009      C1014   1.425       .  A
C1010      H1019   1.075       .  S
C1011      C1012   1.426       .  A
C1011      S1015   1.794       .  S
C1012      C1013   1.400       .  A
C1013      H1020   1.074       .  S
C1014      S1016   1.793       .  S
S1015      H1018   1.391       .  S
S1016      H1017   1.407   1_565  S
C1021      C1022   1.417       .  A
C1021      C1026   1.412       .  A
C1022      C2283   1.420       .  A
C1022      H1031   1.064       .  S
C1023      C2282   1.419   1_455  A
C1023      C1024   1.412       .  A
C1023      S1027   1.796       .  S
C1024      C1025   1.419       .  A
C1025      C2286   1.421   1_455  A
C1025      H1032   1.065       .  S
C1026      C2285   1.423       .  A
C1026      S1028   1.797       .  S
S1027      H1030   1.407       .  S
S1028      H1029   1.407       .  S
C1033      C1034   1.416       .  A
C1033      C1038   1.416       .  A
C1034      C1035   1.419       .  A
C1034      H1043   1.081       .  S
C1035      C1036   1.418       .  A
C1035      S1039   1.805       .  S
C1036      C1037   1.416       .  A
C1037      C1038   1.418       .  A
C1037      H1044   1.081       .  S
C1038      S1040   1.805       .  S
S1039      H1042   1.406       .  S
S1040      H1041   1.406       .  S
C1045      C1046   1.393       .  A
C1045      C1050   1.415       .  A
C1046      C1047   1.394       .  A
C1046      H1055   1.083       .  S
C1047      C1048   1.414       .  A
C1047      S1051   1.791       .  S
C1048      C1049   1.402       .  A
C1049      C1050   1.396       .  A
C1049      H1056   1.081       .  S
C1050      S1052   1.804       .  S
S1051      H1054   1.406       .  S
S1052      H1053   1.407       .  S
C1057      C1058   1.393       .  A
C1057      C1062   1.415       .  A
C1058      C1059   1.389       .  A
C1058      H1067   1.085       .  S
C1059      C1060   1.411       .  A
C1060      C1061   1.399       .  A
C1061      C1062   1.392       .  A
C1061      H2328   1.084       .  S
C1062      S1064   1.805       .  S
S1063      H1066   1.406       .  S
S1064      H1065   1.407       .  S
H1068      C2321   1.084       .  S
C1069      C1070   1.395       .  A
C1069      C1074   1.415       .  A
C1070      C1071   1.390       .  A
C1070      H1079   1.084       .  S
C1071      C1072   1.410       .  A
C1071      S2335   1.787   1_455  S
C1072      C1073   1.400       .  A
C1073      C1074   1.398       .  A
C1073      H1080   1.078       .  S
C1074      S1076   1.809       .  S
S1075      C2331   1.787       .  S
S1075      H1078   1.407       .  S
S1076      H1077   1.408       .  S
C1081      C1082   1.405       .  A
C1081      C1086   1.414       .  A
C1082      C1083   1.399       .  A
C1082      H1091   1.081       .  S
C1083      C1084   1.412       .  A
C1083      S1087   1.802       .  S
C1084      C1085   1.394       .  A
C1085      C1086   1.389       .  A
C1085      H1092   1.083       .  S
C1086      S1088   1.796       .  S
S1087      H1090   1.407       .  S
S1088      H1089   1.406       .  S
C1093      C1094   1.404       .  A
C1093      C1098   1.418       .  A
C1094      C1095   1.396       .  A
C1094      H1103   1.079       .  S
C1095      C1096   1.409       .  A
C1095      S2359   1.809       .  S
C1096      C1097   1.402       .  A
C1097      C1098   1.392       .  A
C1097      H1104   1.084       .  S
C1098      S1100   1.804       .  S
S1099      C2355   1.798       .  S
S1099      H1102   1.408       .  S
S1100      H1101   1.395       .  S
C1105      C1106   1.399       .  A
C1105      C1110   1.410       .  A
C1106      C1107   1.401       .  A
C1106      H1115   1.084       .  S
C1107      C1108   1.424       .  A
C1107      S2371   1.801   1_455  S
C1108      C1109   1.405       .  A
C1109      C1110   1.395       .  A
C1109      H1116   1.083       .  S
C1110      S1112   1.799       .  S
S1111      C2367   1.802       .  S
S1111      H1114   1.408       .  S
S1112      H1113   1.401       .  S
C1117      C1118   1.418       .  A
C1117      C1122   1.414       .  A
C1118      C1119   1.417       .  A
C1118      H1127   1.083       .  S
C1119      C1120   1.414       .  A
C1119      S2383   1.791   1_455  S
C1120      C1121   1.420       .  A
C1121      C1122   1.417       .  A
C1122      S1124   1.793       .  S
S1123      C2379   1.791       .  S
S1123      H1126   1.407       .  S
S1124      H1125   1.406       .  S
C1129      C1130   1.404       .  A
C1129      C1134   1.423       .  A
C1130      C1131   1.420       .  A
C1130      H1139   1.083   1_565  S
C1131      C1132   1.426       .  A
C1131      S1135   1.802       .  S
C1132      C1133   1.408       .  A
C1133      C1134   1.424       .  A
C1133      H1140   1.082       .  S
C1134      S1136   1.805       .  S
S1135      H1138   1.406   1_565  S
S1136      H1137   1.406       .  S
C1141      C1142   1.411       .  A
C1141      C1146   1.419       .  A
C1142      C1143   1.416       .  A
C1142      H1151   1.081       .  S
C1143      C1144   1.419       .  A
C1143      S1147   1.797       .  S
C1144      C1145   1.413       .  A
C1145      C1146   1.418       .  A
C1145      H1152   1.083   1_455  S
C1146      S1148   1.796       .  S
S1147      H1150   1.404       .  S
S1148      H1149   1.405       .  S
C1153      C1154   1.407       .  A
C1153      C1158   1.416       .  A
C1154      C1155   1.408       .  A
C1154      H1163   1.083       .  S
C1155      C1156   1.418       .  A
C1155      S1159   1.802       .  S
C1156      C1157   1.392       .  A
C1157      C1158   1.390       .  A
C1157      H1164   1.083       .  S
C1158      S1160   1.786       .  S
S1159      H1162   1.407       .  S
S1160      H1161   1.407       .  S
C1165      C1166   1.387       .  A
C1165      C1170   1.407       .  A
C1166      C1167   1.398       .  A
C1166      H1175   1.084       .  S
C1167      C1168   1.439       .  A
C1167      S1171   1.797       .  S
C1168      C1169   1.404       .  A
C1169      C1170   1.396       .  A
C1169      H1176   1.069       .  S
C1170      S1172   1.799       .  S
S1171      H1174   1.408       .  S
S1172      H2433   1.407       .  S
H1173      S2432   1.407   1_655  S
C1177      C1178   1.393       .  A
C1177      C1182   1.411       .  A
C1178      C1179   1.393       .  A
C1178      H1187   1.084       .  S
C1179      C1180   1.419       .  A
C1179      S1183   1.802       .  S
C1180      C1181   1.408       .  A
C1181      C1182   1.391       .  A
C1181      H1188   1.083       .  S
C1182      S1184   1.813       .  S
S1183      H1186   1.408       .  S
S1184      H1185   1.399       .  S
C1189      C1190   1.400       .  A
C1189      C1194   1.411       .  A
C1190      C1191   1.404       .  A
C1190      H1199   1.083       .  S
C1191      C1192   1.418       .  A
C1191      S1195   1.810       .  S
C1192      C1193   1.401       .  A
C1193      C1194   1.396       .  A
C1193      H1200   1.083       .  S
C1194      S1196   1.810   1_455  S
S1195      H1198   1.407   1_565  S
S1196      H1197   1.407       .  S
C1201      C1202   1.401       .  A
C1201      C1206   1.412       .  A
C1202      C1203   1.399       .  A
C1202      H1211   1.084       .  S
C1203      C1204   1.415       .  A
C1203      S1207   1.805       .  S
C1204      C1205   1.403       .  A
C1205      C1206   1.397       .  A
C1205      H1212   1.084       .  S
C1206      S1208   1.805       .  S
S1207      H1210   1.407       .  S
S1208      H1209   1.407       .  S
C1213      C1214   1.401       .  A
C1213      C1218   1.418       .  A
C1214      C1215   1.394       .  A
C1214      H1223   1.084       .  S
C1215      C1216   1.415       .  A
C1216      C1217   1.398       .  A
C1217      C1218   1.396       .  A
C1217      H1224   1.084       .  S
C1218      S1220   1.804       .  S
S1219      H1222   1.407       .  S
S1220      H1221   1.407       .  S
C1225      C1226   1.404       .  A
C1225      C1230   1.410       .  A
C1226      H1235   1.083       .  S
C1227      C1228   1.414   1_545  A
C1227      S1231   1.810       .  S
C1229      C1230   1.395       .  A
C1229      H1236   1.084       .  S
C1230      S1232   1.806       .  S
S1231      H1234   1.407       .  S
S1232      H1233   1.399       .  S
C1237      C1238   1.396       .  A
C1237      C1242   1.411       .  A
C1238      C2499   1.401       .  A
C1238      H1247   1.079       .  S
C1239      C2498   1.402       .  A
C1239      C1240   1.421   1_655  A
C1239      S1243   1.811   1_655  S
C1240      C2501   1.409   1_455  A
C1241      C2500   1.410       .  A
C1241      C1242   1.399       .  A
C1241      H1248   1.082       .  S
C1242      S1244   1.814       .  S
S1243      H1246   1.407   1_455  S
S1244      H1245   1.406       .  S
C1249      C1250   1.401       .  A
C1249      C1254   1.401       .  A
C1250      C1251   1.404       .  A
C1250      H1259   1.083       .  S
C1251      C1252   1.421       .  A
C1251      S1255   1.800       .  S
C1252      C1253   1.409       .  A
C1253      C1254   1.387       .  A
C1253      H1260   1.073       .  S
C1254      S1256   1.805       .  S
S1255      H1258   1.406       .  S
S1256      H1257   1.407       .  S
Zn1261     O1265   1.848       .  S
Zn1261     O1266   1.953       .  S
Zn1261     O1270   1.947       .  S
Zn1261     O1277   1.950       .  S
Zn1262     O1265   1.900       .  S
Zn1262     O1267   2.008       .  S
Zn1262     O1269   2.064       .  S
Zn1262     O1273   2.012       .  S
Zn1263     O1265   1.909       .  S
Zn1263     O1268   2.065       .  S
Zn1263     O1271   2.017       .  S
Zn1263     O1274   2.007       .  S
Zn1264     O1265   1.902       .  S
Zn1264     O1272   2.004       .  S
Zn1264     O1275   1.999       .  S
Zn1264     O1276   2.043       .  S
O1266      C1278   1.264       .  A
O1267      C1279   1.277       .  A
O1268      C1280   1.278       .  A
O1269      C1278   1.280       .  A
O1270      C1280   1.262       .  A
O1271      C1279   1.276       .  A
O1272      C1281   1.275       .  A
O1273      C1282   1.276       .  A
O1274      C1281   1.275       .  A
O1275      C1282   1.275       .  A
O1276      C1283   1.277       .  A
O1277      C1283   1.263       .  A
C1278      C1822   1.480       .  S
C1279      C1870   1.491       .  S
C1280      C1834   1.469       .  S
C1281      C1879   1.471       .  S
C1282      C1858   1.480       .  S
C1283      C1843   1.463       .  S
Zn1284     O1288   1.929       .  S
Zn1284     O1919   1.971       .  S
Zn1284     O1300   2.063       .  S
Zn1285     O1918   1.950       .  S
Zn1285     O1292   1.973       .  S
Zn1285     O1296   2.062       .  S
Zn1286     O1291   1.984       .  S
Zn1286     O1924   2.011       .  S
Zn1286     O1297   2.042       .  S
Zn1287     O1288   1.857       .  S
Zn1287     O1928   1.947       .  S
Zn1287     O1299   1.948       .  S
O1288     Zn1915   1.925       .  S
O1289     Zn1914   1.975   1_545  S
O1289      C1301   1.272       .  A
O1290      C1302   1.272       .  A
O1291      C1303   1.273       .  A
O1292      C1301   1.269       .  A
O1293      C1303   1.273       .  A
O1294     Zn1916   2.008   1_545  S
O1294      C1302   1.274       .  A
O1295      C1304   1.264       .  A
O1296      C1305   1.276       .  A
O1297      C1304   1.276       .  A
O1298     Zn1917   1.923       .  S
O1298      C1305   1.260       .  A
O1299      C1306   1.264       .  A
O1300      C1306   1.278       .  A
C1301      C1810   1.474       .  S
C1302      C1795   1.473       .  S
C1303      C1786   1.476       .  S
C1304      C1846   1.462       .  S
C1305      C1831   1.462       .  S
C1306      C1819   1.476       .  S
C1307      H1308   1.108       .  S
C1307      C1313   1.586       .  S
C1307      C1312   1.597       .  S
C1307      C1311   1.590       .  S
C1309      H1310   1.112       .  S
C1309      C1315   1.518       .  S
C1309      C1314   1.526       .  S
C1309      C1316   1.518       .  S
C1311      C1314   1.377       .  D
C1311      C1747   1.534       .  S
C1312      C1315   1.377       .  D
C1312      C1762   1.534       .  S
C1313      C1316   1.369       .  D
C1313      C1771   1.526       .  S
C1314      C1723   1.485       .  S
C1315      C1711   1.491       .  S
C1316      C1735   1.482       .  S
C1317      H1318   1.108       .  S
C1317      C1322   1.592       .  S
C1319      H1320   1.112   1_655  S
C1319      C1955   1.525   1_545  S
C1321      C1324   1.372       .  D
C1321      C1774   1.525       .  S
C1322      C1325   1.378       .  D
C1322      C1759   1.529       .  S
C1323      C1326   1.376       .  D
C1323      C1750   1.538       .  S
C1324      C1702   1.488       .  S
C1325      C1949   1.525       .  S
C1325      C1678   1.495       .  S
C1326      C1690   1.482       .  S
C1327      H1328   1.111       .  S
C1327      C1333   1.515       .  S
C1327      C1332   1.519       .  S
C1327      C1331   1.510       .  S
C1329      H1330   1.107       .  S
C1329      C1335   1.597       .  S
C1329      C1334   1.596       .  S
C1329      C1336   1.600       .  S
C1331      C1334   1.368       .  D
C1331      C1603   1.476       .  S
C1332      C1335   1.390       .  D
C1332      C1627   1.509       .  S
C1333      C1336   1.379       .  D
C1333      C1615   1.475       .  S
C1334      C1639   1.534       .  S
C1335      C1663   1.530       .  S
C1336      C1654   1.556       .  S
C1337      H1338   1.112       .  S
C1337      C1343   1.519       .  S
C1337      C1342   1.513       .  S
C1337      C1341   1.522       .  S
C1339      H1340   1.107       .  S
C1339      C1345   1.594       .  S
C1339      C1344   1.599       .  S
C1339      C1346   1.598       .  S
C1341      C1344   1.390       .  D
C1341      C1882   1.509       .  S
C1342      C1345   1.369       .  D
C1342      C1855   1.481       .  S
C1343      C1346   1.379       .  D
C1343      C1867   1.479       .  S
C1344      C1666   1.533       .  S
C1345      C1642   1.531       .  S
C1346      C1651   1.558       .  S
Zn1347     O1351   1.959       .  S
Zn1347     O1352   2.036       .  S
Zn1347     O1356   2.018       .  S
Zn1347     O1363   1.998       .  S
Zn1348     O1351   1.902       .  S
Zn1348     O1353   1.938       .  S
Zn1348     O1355   1.946       .  S
Zn1348     O1359   1.950       .  S
Zn1349     O1351   1.943       .  S
Zn1349     O1354   1.982       .  S
Zn1349     O1357   2.035       .  S
Zn1349     O1360   1.988       .  S
Zn1350     O1351   1.945       .  S
Zn1350     O1358   1.994       .  S
Zn1350     O1361   2.032       .  S
Zn1350     O1362   1.987       .  S
O1352      C1364   1.276       .  A
O1353      C1365   1.263       .  A
O1354      C1366   1.268       .  A
O1355      C1364   1.264       .  A
O1356      C1366   1.273       .  A
O1357      C1365   1.275       .  A
O1358      C1367   1.270       .  A
O1359      C1368   1.264       .  A
O1360      C1367   1.271       .  A
O1361      C1368   1.274       .  A
O1362      C1369   1.270       .  A
O1363      C1369   1.271       .  A
C1364      C1606   1.455       .  S
C1365      C1630   1.465       .  S
C1366      C1594   1.462       .  S
C1367      C1579   1.470       .  S
C1368      C1618   1.456   1_655  S
C1369      C1567   1.470       .  S
Zn1370     O1374   1.901   1_545  S
Zn1370     O1375   2.020       .  S
Zn1370     O1379   2.073       .  S
Zn1370     O2016   2.000   1_545  S
Zn1371     O1376   2.045       .  S
Zn1371     O2012   1.976   1_545  S
Zn1372     O1374   1.837       .  S
Zn1372     O1377   1.946   1_565  S
Zn1373     O1381   2.041       .  S
Zn1373     O1384   1.996       .  S
O1375      C1387   1.279       .  A
O1376      C1388   1.278       .  A
O1377      C1389   1.261       .  A
O1378      C1387   1.274       .  A
O1379      C1389   1.279       .  A
O1380      C1388   1.263   1_565  A
O1381      C1390   1.275       .  A
O1382     Zn2001   1.975       .  S
O1382      C1391   1.273       .  A
O1383      C1390   1.264   1_455  A
O1384      C1391   1.273       .  A
O1385      C1392   1.271       .  A
O1386     Zn2000   2.001       .  S
O1386      C1392   1.277       .  A
C1387      C1738   1.488       .  S
C1388      C1570   1.470       .  S
C1389      C1591   1.478       .  S
C1390      C1582   1.476       .  S
C1391      C1714   1.463       .  S
C1392      C1726   1.468       .  S
C1393      H1394   1.109       .  S
C1393      C1399   1.593       .  S
C1393      C1398   1.609       .  S
C1393      C1397   1.587       .  S
C1395      H1396   1.092       .  S
C1395      C1401   1.520       .  S
C1395      C1400   1.530       .  S
C1395      C1402   1.522       .  S
C1397      C1400   1.362       .  D
C1397      C1558   1.547       .  S
C1398      C1401   1.402       .  D
C1398      C1531   1.539       .  S
C1399      C1402   1.377       .  D
C1399      C1543   1.541       .  S
C1400      C1807   1.468       .  S
C1401      C1798   1.530       .  S
C1402      C1783   1.497       .  S
C1403      H1404   1.108   1_545  S
C1403      C1408   1.595       .  S
C1403      C2037   1.600   1_545  S
C1405      H1406   1.112       .  S
C1405      C1411   1.518   1_455  S
C1405      C2040   1.520   1_445  S
C1407      C2033   1.600       .  S
C1407      C1410   1.387       .  D
C1407      C1546   1.541       .  S
C1408      C1411   1.369       .  D
C1408      C1534   1.539       .  S
C1409      C1412   1.375       .  D
C1409      C1555   1.539       .  S
C1410      C2035   1.524       .  S
C1410      C1495   1.503       .  S
C1411      C1507   1.479       .  S
C1412      C1522   1.485       .  S
Zn1413     O1417   1.932       .  S
Zn1413     O1418   2.054       .  S
Zn1413     O1422   2.013       .  S
Zn1413     O1429   2.001       .  S
Zn1414     O1417   1.881       .  S
Zn1414     O1419   1.923       .  S
Zn1414     O1421   1.922       .  S
Zn1414     O1425   1.917       .  S
Zn1415     O1417   1.932       .  S
Zn1415     O1420   1.980       .  S
Zn1415     O1423   2.038       .  S
Zn1415     O1426   1.993       .  S
Zn1416     O1417   1.938       .  S
Zn1416     O1424   1.987       .  S
Zn1416     O1427   2.034       .  S
Zn1416     O1428   2.011       .  S
O1418      C1430   1.279       .  A
O1419      C1431   1.260       .  A
O1420      C1432   1.269       .  A
O1421      C1430   1.261       .  A
O1422      C1432   1.275       .  A
O1423      C1431   1.277       .  A
O1424      C1433   1.269       .  A
O1425      C1434   1.260       .  A
O1426      C1433   1.272       .  A
O1427      C1434   1.277       .  A
O1428      C1435   1.275       .  A
O1429      C1435   1.273       .  A
C1430      C1675   1.469       .  S
C1431      C1699   1.465       .  S
C1432      C1459   1.464       .  S
C1433      C1483   1.469       .  S
C1434      C1687   1.457       .  S
C1435      C1474   1.479       .  S
Zn1436     O1440   1.928       .  S
Zn1436     O1441   2.014       .  S
Zn1436     O1445   1.975       .  S
Zn1436     O1452   2.053       .  S
Zn1437     O1440   1.909       .  S
Zn1437     O1442   2.023       .  S
Zn1437     O1444   2.003       .  S
Zn1437     O1448   2.065       .  S
Zn1438     O1440   1.913       .  S
Zn1438     O1443   1.981       .  S
Zn1438     O1446   2.006       .  S
Zn1438     O1449   2.051       .  S
Zn1439     O1440   1.843       .  S
Zn1439     O1447   1.949       .  S
Zn1439     O1450   1.928       .  S
Zn1439     O1451   1.952       .  S
O1441      C1453   1.274       .  A
O1442      C1454   1.278       .  A
O1443      C1455   1.274       .  A
O1444      C1453   1.277       .  A
O1445      C1455   1.269       .  A
O1446      C1454   1.273       .  A
O1447      C1456   1.263       .  A
O1448      C1457   1.279       .  A
O1449      C1456   1.277       .  A
O1450      C1457   1.263       .  A
O1451      C1458   1.266       .  A
O1452      C1458   1.279       .  A
C1453      C1498   1.471       .  S
C1454      C1510   1.490       .  S
C1455      C1519   1.467       .  S
C1456      C1471   1.469       .  S
C1457      C1486   1.466       .  S
C1458      C1462   1.469   1_554  S
C1459      C1460   1.408       .  A
C1459      C1464   1.404       .  A
C1460      C1461   1.399       .  A
C1460      H1469   1.084       .  S
C1461      C1462   1.408       .  A
C1461      S1465   1.803   1_556  S
C1462      C1463   1.408       .  A
C1463      C1464   1.394       .  A
C1463      H1470   1.084       .  S
C1464      S1466   1.804       .  S
S1465      H1468   1.407       .  S
S1466      H1467   1.407       .  S
C1471      C2102   1.400   1_545  A
C1471      C1476   1.414   1_554  A
C1472      C2101   1.399       .  A
C1472      C1473   1.396   1_554  A
C1472      H1481   1.084       .  S
C1473      C1474   1.418       .  A
C1473      S1477   1.801       .  S
C1474      C2105   1.404       .  A
C1475      C2104   1.402       .  A
C1475      C1476   1.397   1_565  A
C1475      H1482   1.084       .  S
C1476      S1478   1.805   1_556  S
S1477      H1480   1.406       .  S
S1478      H1479   1.407       .  S
C1483      C1484   1.405       .  A
C1484      C1485   1.394       .  A
C1484      H1493   1.084       .  S
C1485      S1489   1.803   1_556  S
C1486      C1487   1.407   1_554  A
C1487      C1488   1.397       .  A
C1487      H1494   1.084       .  S
C1488      S1490   1.803       .  S
S1489      H1492   1.406       .  S
S1490      H1491   1.407       .  S
C1495      C1496   1.407       .  A
C1495      C1500   1.423       .  A
C1496      C1497   1.407       .  A
C1496      H1505   1.083       .  S
C1497      C1498   1.415       .  A
C1497      S1501   1.803       .  S
C1498      C1499   1.388       .  A
C1499      C1500   1.391       .  A
C1499      H1506   1.084       .  S
C1500      S1502   1.793   1_655  S
S1501      H1504   1.406       .  S
C1507      C1508   1.400       .  A
C1507      C1512   1.413       .  A
C1508      C1509   1.402       .  A
C1508      H1517   1.083   1_545  S
C1509      C1510   1.419       .  A
C1509      S1513   1.809   1_545  S
C1510      C1511   1.407       .  A
C1511      C1512   1.397       .  A
C1511      H1518   1.083       .  S
S1513      H1516   1.407       .  S
S1514      H1515   1.400       .  S
C1519      C1520   1.401       .  A
C1519      C1524   1.409       .  A
C1520      C1521   1.388       .  A
C1520      H1529   1.084       .  S
C1521      C1522   1.419       .  A
C1521      S2155   1.801   1_545  S
C1522      C1523   1.405       .  A
C1523      C1524   1.391       .  A
C1523      H1530   1.078       .  S
C1524      S1526   1.800       .  S
S1525      C2151   1.800       .  S
S1525      H1528   1.394       .  S
S1526      H1527   1.408       .  S
C1531      C1532   1.412       .  A
C1531      C1536   1.424       .  A
C1532      C1533   1.424       .  A
C1532      H1541   1.082       .  S
C1533      C1534   1.426       .  A
C1533      S1537   1.802   1_545  S
C1534      C1535   1.411       .  A
C1535      C1536   1.420       .  A
C1535      H1542   1.080   1_655  S
C1536      S1538   1.805       .  S
S1537      H2170   1.400       .  S
S1538      H1539   1.402       .  S
H1540      S2167   1.400       .  S
C1543      C1544   1.404       .  A
C1543      C1548   1.433       .  A
C1544      C1545   1.424       .  A
C1544      H1553   1.079       .  S
C1545      C1546   1.430       .  A
C1545      S1549   1.802   1_655  S
C1546      C1547   1.403       .  A
C1547      C1548   1.417       .  A
C1547      H1554   1.081       .  S
C1548      S1550   1.804       .  S
S1549      H1552   1.407   1_455  S
S1550      H1551   1.401       .  S
C1555      C1556   1.418       .  A
C1555      C1560   1.415       .  A
C1556      C1557   1.423       .  A
C1556      H1565   1.083       .  S
C1557      C1558   1.421       .  A
C1557      S1561   1.796       .  S
C1558      C1559   1.418       .  A
C1559      C1560   1.420       .  A
C1559      H1566   1.076       .  S
C1560      S2192   1.799   1_545  S
S1561      H1564   1.402       .  S
S1562      C2190   1.800       .  S
S1562      H1563   1.402       .  S
C1567      C1568   1.401       .  A
C1567      C1572   1.416       .  A
C1568      C1569   1.398       .  A
C1568      H1577   1.084   1_545  S
C1569      C1570   1.418       .  A
C1569      S2203   1.805   1_545  S
C1570      C1571   1.399       .  A
C1571      C1572   1.392       .  A
C1571      H1578   1.084       .  S
C1572      S1574   1.802       .  S
S1573      C2199   1.805       .  S
S1573      H1576   1.407       .  S
S1574      H1575   1.407       .  S
C1579      C1580   1.404       .  A
C1579      C1584   1.407       .  A
C1580      C1581   1.393       .  A
C1580      H1589   1.084       .  S
C1581      C1582   1.413       .  A
C1581      S1585   1.801       .  S
C1582      C1583   1.410       .  A
C1583      C1584   1.401       .  A
C1583      H1590   1.083   1_655  S
C1584      S1586   1.807   1_655  S
S1585      H1588   1.407       .  S
S1586      H1587   1.407       .  S
C1591      C1592   1.399       .  A
C1591      C1596   1.425       .  A
C1592      C1593   1.397       .  A
C1592      H1601   1.084       .  S
C1593      C1594   1.414       .  A
C1593      S1597   1.806       .  S
C1594      C1595   1.393       .  A
C1595      C1596   1.400       .  A
C1595      H1602   1.083       .  S
C1596      S1598   1.812       .  S
S1597      H1600   1.406       .  S
S1598      H1599   1.407       .  S
C1603      C1604   1.406       .  A
C1603      C1608   1.414       .  A
C1604      C1605   1.392       .  A
C1604      H1613   1.084       .  S
C1605      C2236   1.405       .  A
C1605      S1609   1.804       .  S
C1606      C2235   1.406   1_545  A
C1606      C1607   1.401       .  A
C1607      C2238   1.395   1_545  A
C1607      H1614   1.084       .  S
C1608      C2237   1.396       .  A
C1608      S1610   1.805       .  S
S1609      H2242   1.406       .  S
S1610      H1611   1.400       .  S
H1612      S2239   1.405   1_545  S
C1615      C1616   1.399       .  A
C1615      C1620   1.421       .  A
C1616      C1617   1.393       .  A
C1616      H1625   1.081       .  S
C1617      S1621   1.804       .  S
C1618      C1619   1.398       .  A
C1619      H1626   1.084       .  S
C1620      S1622   1.814       .  S
S1622      H1623   1.402       .  S
C1627      C1628   1.413       .  A
C1627      C1632   1.423       .  A
C1628      C1629   1.392       .  A
C1628      H1637   1.075       .  S
C1629      C1630   1.400       .  A
C1629      S1633   1.803       .  S
C1630      C1631   1.401       .  A
C1631      C1632   1.395       .  A
C1631      H1638   1.085       .  S
C1632      S1634   1.797       .  S
S1633      H1636   1.407       .  S
S1634      H1635   1.380       .  S
C1639      C1640   1.404       .  A
C1639      C1644   1.425       .  A
C1640      C2271   1.414       .  A
C1640      H1649   1.075       .  S
C1641      C2270   1.415   1_545  A
C1641      C1642   1.426       .  A
C1641      S1645   1.795       .  S
C1642      C1643   1.400       .  A
C1643      C2274   1.415   1_545  A
C1643      H1650   1.074       .  S
C1644      C2273   1.414       .  A
C1644      S1646   1.794       .  S
S1645      H1648   1.391       .  S
S1646      H1647   1.406       .  S
C1651      C1652   1.416       .  A
C1651      C1656   1.415       .  A
C1652      H1661   1.069       .  S
C1653      C1654   1.413       .  A
C1653      S1657   1.796       .  S
C1654      C1655   1.421       .  A
C1655      H1662   1.065       .  S
C1656      S1658   1.797       .  S
S1657      H1660   1.407       .  S
S1658      H1659   1.407       .  S
C1663      C1664   1.415       .  A
C1663      C1668   1.416       .  A
C1664      C1665   1.418       .  A
C1664      H1673   1.081       .  S
C1665      C1666   1.418       .  A
C1665      S1669   1.805       .  S
C1666      C1667   1.416       .  A
C1667      C1668   1.418       .  A
C1667      H1674   1.081       .  S
C1668      S1670   1.805       .  S
S1669      H1672   1.406       .  S
S1670      H1671   1.406       .  S
C1675      C1676   1.393       .  A
C1675      C1680   1.416       .  A
C1676      C1677   1.396       .  A
C1676      H1685   1.083       .  S
C1677      C1678   1.415       .  A
C1677      S1681   1.792       .  S
C1678      C1679   1.402       .  A
C1679      C1680   1.397       .  A
C1679      H1686   1.081       .  S
C1680      S1682   1.804       .  S
S1681      H1684   1.406       .  S
S1682      H1683   1.407       .  S
C1687      C1688   1.393       .  A
C1687      C1692   1.416       .  A
C1688      C1689   1.388       .  A
C1688      H1697   1.085       .  S
C1689      C1690   1.410       .  A
C1689      S2323   1.787       .  S
C1690      C1691   1.400       .  A
C1691      C1692   1.394       .  A
C1692      S1694   1.805       .  S
S1693      C2319   1.787   1_545  S
S1693      H1696   1.406       .  S
S1694      H1695   1.407       .  S
C1699      C1700   1.394       .  A
C1699      C1704   1.416       .  A
C1700      C1701   1.390       .  A
C1700      H1709   1.084       .  S
C1701      C1702   1.410       .  A
C1702      C1703   1.400       .  A
C1703      C1704   1.399       .  A
C1703      H1710   1.079       .  S
C1704      S1706   1.810       .  S
S1705      H1708   1.407       .  S
S1706      H1707   1.408       .  S
C1711      C1712   1.405       .  A
C1711      C1716   1.415       .  A
C1712      C1713   1.398       .  A
C1712      H1721   1.081       .  S
C1713      C1714   1.412       .  A
C1713      S1717   1.802       .  S
C1714      C1715   1.392       .  A
C1715      C1716   1.388       .  A
C1715      H1722   1.083       .  S
C1716      S1718   1.795       .  S
S1717      H1720   1.407       .  S
S1718      H1719   1.406       .  S
C1723      C1724   1.404       .  A
C1723      C1728   1.419       .  A
C1724      C1725   1.392       .  A
C1724      H1733   1.082       .  S
C1725      C1726   1.409       .  A
C1726      C1727   1.402       .  A
C1727      C1728   1.392       .  A
C1727      H1734   1.084       .  S
C1728      S1730   1.804       .  S
S1729      H1732   1.407       .  S
S1730      H1731   1.395       .  S
C1735      C1736   1.399       .  A
C1735      C1740   1.410       .  A
C1736      C1737   1.401       .  A
C1736      H1745   1.084       .  S
C1737      C1738   1.423       .  A
C1738      C1739   1.404       .  A
C1739      C1740   1.394       .  A
C1739      H1746   1.084       .  S
C1740      S1742   1.798       .  S
S1741      H1744   1.408       .  S
S1742      H1743   1.402       .  S
C1747      C1748   1.418       .  A
C1747      C1752   1.413       .  A
C1748      C1749   1.417       .  A
C1748      H1757   1.083       .  S
C1749      C1750   1.414       .  A
C1750      C1751   1.419       .  A
C1751      C1752   1.416       .  A
C1751      H2388   1.082       .  S
C1752      S1754   1.793       .  S
S1753      H1756   1.407       .  S
S1754      H1755   1.406       .  S
H1758      C2381   1.082       .  S
C1759      C1760   1.404       .  A
C1759      C1764   1.424       .  A
C1760      C1761   1.420       .  A
C1760      H1769   1.083       .  S
C1761      C1762   1.426       .  A
C1761      S1765   1.802       .  S
C1762      C1763   1.408       .  A
C1763      C1764   1.424       .  A
C1763      H1770   1.082       .  S
C1764      S1766   1.805       .  S
S1765      H1768   1.407       .  S
S1766      H1767   1.406       .  S
C1771      C1772   1.411       .  A
C1771      C1776   1.418       .  A
C1772      C1773   1.416       .  A
C1772      H1781   1.081       .  S
C1773      C1774   1.419       .  A
C1773      S1777   1.797       .  S
C1774      C1775   1.412       .  A
C1775      C1776   1.417       .  A
C1775      H1782   1.083       .  S
C1776      S1778   1.796       .  S
S1777      H1780   1.404       .  S
S1778      H1779   1.405       .  S
C1783      C1784   1.406       .  A
C1783      C1788   1.416       .  A
C1784      C1785   1.405       .  A
C1784      H1793   1.083       .  S
C1785      C1786   1.417       .  A
C1785      S1789   1.802   1_655  S
C1786      C1787   1.394       .  A
C1787      C1788   1.390       .  A
C1787      H1794   1.083       .  S
C1788      S1790   1.793       .  S
S1789      H1792   1.407       .  S
S1790      H1791   1.406       .  S
C1795      C1796   1.387       .  A
C1795      C1800   1.406       .  A
C1796      C1797   1.399       .  A
C1796      H1805   1.084       .  S
C1797      C1798   1.442       .  A
C1797      S1801   1.802       .  S
C1798      C1799   1.407       .  A
C1799      C1800   1.398       .  A
C1799      H1806   1.068       .  S
C1800      S1802   1.798   1_655  S
S1801      H1804   1.408       .  S
C1807      C1808   1.390       .  A
C1807      C1812   1.410       .  A
C1808      C1809   1.389       .  A
C1808      H1817   1.084       .  S
C1809      C1810   1.420       .  A
C1809      S1813   1.800       .  S
C1810      C1811   1.407       .  A
C1811      C1812   1.391       .  A
C1811      H1818   1.083       .  S
C1812      S1814   1.813       .  S
S1813      H1816   1.408       .  S
S1814      H1815   1.397       .  S
C1819      C1820   1.402       .  A
C1819      C1824   1.414       .  A
C1820      C1821   1.404       .  A
C1820      H1829   1.083       .  S
C1821      C1822   1.418       .  A
C1821      S1825   1.810       .  S
C1822      C1823   1.402       .  A
C1823      C1824   1.399       .  A
C1823      H1830   1.082       .  S
C1824      S1826   1.811       .  S
S1825      H1828   1.407       .  S
S1826      H1827   1.407       .  S
C1831      C1832   1.401       .  A
C1831      C1836   1.412       .  A
C1832      C1833   1.398       .  A
C1832      H1841   1.084       .  S
C1833      C1834   1.414       .  A
C1833      S1837   1.804       .  S
C1834      C1835   1.402       .  A
C1835      C1836   1.397       .  A
C1835      H1842   1.084       .  S
C1836      S1838   1.804       .  S
S1837      H1840   1.407       .  S
S1838      H1839   1.407       .  S
C1843      C1844   1.401       .  A
C1843      C1848   1.413       .  A
C1844      C1845   1.393       .  A
C1844      H1853   1.084       .  S
C1845      C1846   1.412       .  A
C1845      S2479   1.805       .  S
C1846      C1847   1.401       .  A
C1847      C1848   1.396       .  A
C1847      H1854   1.084       .  S
C1848      S1850   1.805       .  S
S1849      C2475   1.806   1_545  S
S1849      H1852   1.407       .  S
S1850      H1851   1.407       .  S
C1855      C1856   1.404       .  A
C1855      C1860   1.412       .  A
C1856      C2487   1.400       .  A
C1856      H1865   1.083       .  S
C1857      C2486   1.397       .  A
C1857      C1858   1.413       .  A
C1857      S1861   1.809       .  S
C1858      C2489   1.408       .  A
C1859      C2488   1.407       .  A
C1859      C1860   1.398   1_565  A
C1859      H1866   1.084       .  S
C1860      S1862   1.806       .  S
S1861      H1864   1.407       .  S
S1862      H1863   1.398       .  S
C1867      C1868   1.395       .  A
C1867      C1872   1.411       .  A
C1868      H1877   1.078       .  S
C1869      C1870   1.422       .  A
C1869      S1873   1.811       .  S
C1871      C1872   1.399       .  A
C1871      H1878   1.082   1_655  S
C1872      S1874   1.815       .  S
S1873      H1876   1.407       .  S
S1874      H1875   1.406       .  S
C1879      C1880   1.402       .  A
C1879      C1884   1.403       .  A
C1880      C1881   1.404       .  A
C1880      H1889   1.083       .  S
C1881      C1882   1.420       .  A
C1881      S1885   1.799       .  S
C1882      C1883   1.409       .  A
C1883      C1884   1.390       .  A
C1883      H1890   1.074       .  S
C1884      S1886   1.805       .  S
S1885      H1888   1.407       .  S
S1886      H1887   1.407       .  S
Zn1891     O1895   1.837       .  S
Zn1891     O1896   1.942       .  S
Zn1891     O1900   1.949       .  S
Zn1891     O1907   1.945       .  S
Zn1892     O1895   1.894       .  S
Zn1892     O1897   2.015       .  S
Zn1892     O1899   2.061       .  S
Zn1892     O1903   2.015       .  S
Zn1893     O1895   1.898       .  S
Zn1893     O1898   2.068       .  S
Zn1893     O1901   2.013       .  S
Zn1893     O1904   1.997       .  S
Zn1894     O1895   1.899       .  S
Zn1894     O1902   2.005       .  S
Zn1894     O1905   2.015       .  S
Zn1894     O1906   2.063       .  S
O1896      C1908   1.262       .  A
O1897      C1909   1.278       .  A
O1898      C1910   1.278       .  A
O1899      C1908   1.280       .  A
O1900      C1910   1.262       .  A
O1901      C1909   1.275       .  A
O1902      C1911   1.277       .  A
O1903      C1912   1.276       .  A
O1904      C1911   1.275       .  A
O1905      C1912   1.278       .  A
O1906      C1913   1.279       .  A
O1907      C1913   1.261       .  A
C1908      C2452   1.474       .  S
C1909      C2500   1.492       .  S
C1910      C2464   1.473       .  S
C1911      C2509   1.466       .  S
C1912      C2488   1.484       .  S
C1913      C2473   1.472       .  S
Zn1914     O1918   1.963   1_565  S
Zn1914     O1930   2.061       .  S
Zn1915     O1922   1.986       .  S
Zn1915     O1926   2.064       .  S
Zn1916     O1921   1.986       .  S
Zn1916     O1927   2.065       .  S
Zn1917     O1918   1.879       .  S
Zn1917     O1929   1.918   1_545  S
O1919      C1931   1.273       .  A
O1920      C1932   1.271       .  A
O1921      C1933   1.274       .  A
O1922      C1931   1.271       .  A
O1923      C1933   1.273       .  A
O1924      C1932   1.274       .  A
O1925      C1934   1.258       .  A
O1926      C1935   1.278       .  A
O1927      C1934   1.276       .  A
O1928      C1935   1.263       .  A
O1929      C1936   1.260       .  A
O1930      C1936   1.276       .  A
C1931      C2440   1.477       .  S
C1932      C2425   1.470       .  S
C1933      C2416   1.475       .  S
C1934      C2476   1.460       .  S
C1935      C2461   1.469       .  S
C1936      C2449   1.463       .  S
C1937      H1938   1.108       .  S
C1937      C1943   1.588       .  S
C1937      C1942   1.598       .  S
C1937      C1941   1.590       .  S
C1939      H1940   1.112       .  S
C1939      C1945   1.517       .  S
C1939      C1944   1.527       .  S
C1939      C1946   1.518       .  S
C1941      C1944   1.377       .  D
C1941      C2377   1.535       .  S
C1942      C1945   1.376       .  D
C1942      C2392   1.532       .  S
C1943      C1946   1.369       .  D
C1943      C2401   1.528       .  S
C1944      C2353   1.485       .  S
C1945      C2341   1.491       .  S
C1946      C2365   1.483       .  S
C1947      H1948   1.108       .  S
C1947      C1952   1.591       .  S
C1949      H1950   1.112       .  S
C1951      C1954   1.372       .  D
C1951      C2404   1.527       .  S
C1952      C1955   1.376       .  D
C1952      C2389   1.526       .  S
C1953      C1956   1.376       .  D
C1953      C2380   1.539       .  S
C1954      C2332   1.489       .  S
C1955      C2308   1.496       .  S
C1956      C2320   1.481       .  S
C1957      H1958   1.111       .  S
C1957      C1963   1.513       .  S
C1957      C1962   1.518       .  S
C1957      C1961   1.509       .  S
C1959      H1960   1.107       .  S
C1959      C1965   1.599       .  S
C1959      C1964   1.597       .  S
C1959      C1966   1.601       .  S
C1961      C1964   1.367       .  D
C1961      C2233   1.473       .  S
C1962      C1965   1.390       .  D
C1962      C2257   1.506       .  S
C1963      C1966   1.377       .  D
C1963      C2245   1.477       .  S
C1964      C2269   1.537       .  S
C1965      C2293   1.533       .  S
C1966      C2284   1.553       .  S
C1967      H1968   1.111       .  S
C1967      C1973   1.517       .  S
C1967      C1972   1.510       .  S
C1967      C1971   1.523       .  S
C1969      H1970   1.107       .  S
C1969      C1975   1.594       .  S
C1969      C1974   1.598       .  S
C1969      C1976   1.596       .  S
C1971      C1974   1.390       .  D
C1971      C2512   1.507       .  S
C1972      C1975   1.368       .  D
C1972      C2485   1.477       .  S
C1973      C1976   1.377       .  D
C1973      C2497   1.480       .  S
C1974      C2296   1.534       .  S
C1975      C2272   1.529       .  S
C1976      C2281   1.550       .  S
Zn1977     O1981   1.956       .  S
Zn1977     O1982   2.035       .  S
Zn1977     O1986   2.014       .  S
Zn1977     O1993   1.997       .  S
Zn1978     O1981   1.899       .  S
Zn1978     O1983   1.929       .  S
Zn1978     O1985   1.951       .  S
Zn1978     O1989   1.951       .  S
Zn1979     O1981   1.941       .  S
Zn1979     O1984   1.976       .  S
Zn1979     O1987   2.026       .  S
Zn1979     O1990   1.987       .  S
Zn1980     O1981   1.941       .  S
Zn1980     O1988   1.995       .  S
Zn1980     O1991   2.034       .  S
Zn1980     O1992   1.991       .  S
O1982      C1994   1.276       .  A
O1983      C1995   1.263       .  A
O1984      C1996   1.268       .  A
O1985      C1994   1.264       .  A
O1986      C1996   1.273       .  A
O1987      C1995   1.274       .  A
O1988      C1997   1.271       .  A
O1989      C1998   1.264       .  A
O1990      C1997   1.271       .  A
O1991      C1998   1.274       .  A
O1992      C1999   1.271       .  A
O1993      C1999   1.271       .  A
C1994      C2236   1.457       .  S
C1995      C2260   1.460       .  S
C1996      C2224   1.461       .  S
C1997      C2209   1.469       .  S
C1998      C2248   1.457   1_655  S
C1999      C2197   1.473       .  S
Zn2000     O2004   1.900       .  S
Zn2000     O2005   2.025       .  S
Zn2000     O2009   2.071       .  S
Zn2001     O2006   2.043       .  S
Zn2002     O2004   1.834       .  S
Zn2002     O2007   1.942       .  S
Zn2003     O2011   2.045       .  S
Zn2003     O2014   2.002       .  S
O2005      C2017   1.279       .  A
O2006      C2018   1.278       .  A
O2007      C2019   1.261       .  A
O2008      C2017   1.274       .  A
O2009      C2019   1.279       .  A
O2010      C2018   1.265       .  A
O2011      C2020   1.276       .  A
O2012      C2021   1.274       .  A
O2013      C2020   1.265   1_455  A
O2014      C2021   1.273       .  A
O2015      C2022   1.272       .  A
O2016      C2022   1.276       .  A
C2017      C2368   1.490       .  S
C2018      C2200   1.469       .  S
C2019      C2221   1.474       .  S
C2020      C2212   1.480       .  S
C2021      C2344   1.465       .  S
C2022      C2356   1.469       .  S
C2023      H2024   1.109       .  S
C2023      C2029   1.593       .  S
C2023      C2028   1.606       .  S
C2023      C2027   1.588       .  S
C2025      H2026   1.095       .  S
C2025      C2031   1.521       .  S
C2025      C2030   1.532       .  S
C2025      C2032   1.524       .  S
C2027      C2030   1.362       .  D
C2027      C2188   1.545       .  S
C2028      C2031   1.401       .  D
C2028      C2161   1.541       .  S
C2029      C2032   1.378       .  D
C2029      C2173   1.540       .  S
C2030      C2437   1.471       .  S
C2031      C2428   1.526       .  S
C2032      C2413   1.500       .  S
C2033      H2034   1.108       .  S
C2033      C2038   1.594       .  S
C2035      H2036   1.111       .  S
C2035      C2041   1.518       .  S
C2037      C2040   1.384       .  D
C2037      C2176   1.540       .  S
C2038      C2041   1.370       .  D
C2038      C2164   1.538       .  S
C2039      C2042   1.374       .  D
C2039      C2185   1.539       .  S
C2040      C2125   1.498       .  S
C2041      C2137   1.480       .  S
C2042      C2152   1.485       .  S
Zn2043     O2047   1.933       .  S
Zn2043     O2048   2.051       .  S
Zn2043     O2052   2.005       .  S
Zn2043     O2059   1.995       .  S
Zn2044     O2047   1.881       .  S
Zn2044     O2049   1.926       .  S
Zn2044     O2051   1.929       .  S
Zn2044     O2055   1.912       .  S
Zn2045     O2047   1.931       .  S
Zn2045     O2050   1.975       .  S
Zn2045     O2053   2.034       .  S
Zn2045     O2056   1.998       .  S
Zn2046     O2047   1.940       .  S
Zn2046     O2054   1.990       .  S
Zn2046     O2057   2.033       .  S
Zn2046     O2058   2.009       .  S
O2048      C2060   1.278       .  A
O2049      C2061   1.261       .  A
O2050      C2062   1.269       .  A
O2051      C2060   1.261       .  A
O2052      C2062   1.274       .  A
O2053      C2061   1.276       .  A
O2054      C2063   1.269       .  A
O2055      C2064   1.261       .  A
O2056      C2063   1.272       .  A
O2057      C2064   1.277       .  A
O2058      C2065   1.275       .  A
O2059      C2065   1.272       .  A
C2060      C2305   1.469       .  S
C2061      C2329   1.464       .  S
C2062      C2089   1.462       .  S
C2063      C2113   1.470       .  S
C2064      C2317   1.456       .  S
C2065      C2104   1.476       .  S
Zn2066     O2070   1.924       .  S
Zn2066     O2071   2.013       .  S
Zn2066     O2075   1.977       .  S
Zn2066     O2082   2.053       .  S
Zn2067     O2070   1.897       .  S
Zn2067     O2072   2.027       .  S
Zn2067     O2074   2.002       .  S
Zn2067     O2078   2.069       .  S
Zn2068     O2070   1.902       .  S
Zn2068     O2073   1.982       .  S
Zn2068     O2076   2.000       .  S
Zn2068     O2079   2.050       .  S
Zn2069     O2070   1.837       .  S
Zn2069     O2077   1.955       .  S
Zn2069     O2080   1.939       .  S
Zn2069     O2081   1.943       .  S
O2071      C2083   1.275       .  A
O2072      C2084   1.278       .  A
O2073      C2085   1.275       .  A
O2074      C2083   1.277       .  A
O2075      C2085   1.270       .  A
O2076      C2084   1.273       .  A
O2077      C2086   1.264       .  A
O2078      C2087   1.280       .  A
O2079      C2086   1.277       .  A
O2080      C2087   1.263       .  A
O2081      C2088   1.265       .  A
O2082      C2088   1.279       .  A
C2083      C2128   1.472       .  S
C2084      C2140   1.487       .  S
C2085      C2149   1.468       .  S
C2086      C2101   1.469       .  S
C2087      C2116   1.470       .  S
C2088      C2092   1.463   1_554  S
C2089      C2090   1.409       .  A
C2089      C2094   1.405       .  A
C2090      C2091   1.397       .  A
C2090      H2099   1.085       .  S
C2091      C2092   1.406       .  A
C2091      S2095   1.804   1_556  S
C2092      C2093   1.407       .  A
C2093      C2094   1.392       .  A
C2093      H2100   1.085       .  S
C2094      S2096   1.804       .  S
S2095      H2098   1.406       .  S
S2096      H2097   1.406       .  S
C2101      C2106   1.413   1_554  A
C2102      C2103   1.396   1_554  A
C2102      H2111   1.084       .  S
C2103      C2104   1.418       .  A
C2103      S2107   1.802       .  S
C2105      C2106   1.398       .  A
C2105      H2112   1.084       .  S
C2106      S2108   1.804       .  S
S2107      H2110   1.407       .  S
S2108      H2109   1.407   1_556  S
C2113      C2114   1.405       .  A
C2114      C2115   1.395       .  A
C2114      H2123   1.084       .  S
C2115      S2119   1.803   1_556  S
C2116      C2117   1.407   1_554  A
C2117      C2118   1.399       .  A
C2117      H2124   1.084       .  S
C2118      S2120   1.804       .  S
S2119      H2122   1.406       .  S
S2120      H2121   1.407       .  S
C2125      C2126   1.406       .  A
C2125      C2130   1.420       .  A
C2126      C2127   1.406       .  A
C2126      H2135   1.083       .  S
C2127      C2128   1.417       .  A
C2127      S2131   1.802       .  S
C2128      C2129   1.389       .  A
C2129      C2130   1.389       .  A
C2129      H2136   1.084       .  S
C2130      S2132   1.792   1_655  S
S2131      H2134   1.407       .  S
C2137      C2138   1.401       .  A
C2137      C2142   1.415       .  A
C2138      C2139   1.401       .  A
C2138      H2147   1.083       .  S
C2139      C2140   1.418       .  A
C2139      S2143   1.808       .  S
C2140      C2141   1.406       .  A
C2141      C2142   1.398       .  A
C2141      H2148   1.084       .  S
S2143      H2146   1.407       .  S
S2144      H2145   1.400       .  S
C2149      C2150   1.400       .  A
C2149      C2154   1.410       .  A
C2150      C2151   1.387       .  A
C2150      H2159   1.084       .  S
C2151      C2152   1.418       .  A
C2152      C2153   1.404       .  A
C2153      C2154   1.396       .  A
C2153      H2160   1.076       .  S
C2154      S2156   1.809       .  S
S2155      H2158   1.395       .  S
S2156      H2157   1.407       .  S
C2161      C2162   1.413       .  A
C2161      C2166   1.426       .  A
C2162      C2163   1.425       .  A
C2162      H2171   1.083       .  S
C2163      C2164   1.426       .  A
C2163      S2167   1.804       .  S
C2164      C2165   1.409       .  A
C2165      C2166   1.420       .  A
C2165      H2172   1.081   1_655  S
C2166      S2168   1.806       .  S
S2168      H2169   1.400       .  S
C2173      C2174   1.405       .  A
C2173      C2178   1.432       .  A
C2174      C2175   1.424       .  A
C2174      H2183   1.079       .  S
C2175      C2176   1.429       .  A
C2175      S2179   1.802   1_655  S
C2176      C2177   1.402       .  A
C2177      C2178   1.416       .  A
C2177      H2184   1.079       .  S
C2178      S2180   1.804       .  S
S2179      H2182   1.407   1_455  S
S2180      H2181   1.401       .  S
C2185      C2186   1.419       .  A
C2185      C2190   1.415       .  A
C2186      C2187   1.424       .  A
C2186      H2195   1.083       .  S
C2187      C2188   1.420       .  A
C2187      S2191   1.796       .  S
C2188      C2189   1.416       .  A
C2189      C2190   1.420       .  A
C2189      H2196   1.075       .  S
S2191      H2194   1.403       .  S
S2192      H2193   1.403       .  S
C2197      C2198   1.403       .  A
C2197      C2202   1.417       .  A
C2198      C2199   1.398       .  A
C2198      H2207   1.084       .  S
C2199      C2200   1.415       .  A
C2200      C2201   1.399       .  A
C2201      C2202   1.393       .  A
C2201      H2208   1.084       .  S
C2202      S2204   1.802       .  S
S2203      H2206   1.407       .  S
S2204      H2205   1.407       .  S
C2209      C2210   1.403       .  A
C2209      C2214   1.406       .  A
C2210      C2211   1.393       .  A
C2210      H2219   1.084       .  S
C2211      C2212   1.414       .  A
C2211      S2215   1.801       .  S
C2212      C2213   1.411       .  A
C2213      C2214   1.401       .  A
C2213      H2220   1.083   1_655  S
C2214      S2216   1.807   1_655  S
S2215      H2218   1.408       .  S
S2216      H2217   1.407       .  S
C2221      C2222   1.398       .  A
C2221      C2226   1.424       .  A
C2222      C2223   1.396       .  A
C2222      H2231   1.084       .  S
C2223      C2224   1.415       .  A
C2223      S2227   1.806       .  S
C2224      C2225   1.392       .  A
C2225      C2226   1.399       .  A
C2225      H2232   1.083       .  S
C2226      S2228   1.811       .  S
S2227      H2230   1.406       .  S
S2228      H2229   1.407       .  S
C2233      C2234   1.406       .  A
C2233      C2238   1.412       .  A
C2234      C2235   1.392       .  A
C2234      H2243   1.084       .  S
C2235      S2239   1.805       .  S
C2236      C2237   1.402       .  A
C2237      H2244   1.085       .  S
C2238      S2240   1.806       .  S
S2240      H2241   1.400       .  S
C2245      C2246   1.399       .  A
C2245      C2250   1.421       .  A
C2246      C2247   1.394       .  A
C2246      H2255   1.081       .  S
C2247      S2251   1.805       .  S
C2248      C2249   1.397       .  A
C2249      H2256   1.084       .  S
C2250      S2252   1.814       .  S
S2252      H2253   1.401       .  S
C2257      C2258   1.413       .  A
C2257      C2262   1.422       .  A
C2258      C2259   1.390       .  A
C2258      H2267   1.074       .  S
C2259      C2260   1.399       .  A
C2259      S2263   1.804       .  S
C2260      C2261   1.400       .  A
C2261      C2262   1.393       .  A
C2261      H2268   1.085       .  S
C2262      S2264   1.797       .  S
S2263      H2266   1.407       .  S
S2264      H2265   1.379       .  S
C2269      C2270   1.405       .  A
C2269      C2274   1.425       .  A
C2270      H2279   1.075       .  S
C2271      C2272   1.425       .  A
C2271      S2275   1.795       .  S
C2272      C2273   1.400       .  A
C2273      H2280   1.074       .  S
C2274      S2276   1.794       .  S
S2275      H2278   1.392       .  S
S2276      H2277   1.406   1_565  S
C2281      C2282   1.416       .  A
C2281      C2286   1.412       .  A
C2282      H2291   1.066       .  S
C2283      C2284   1.411       .  A
C2283      S2287   1.796       .  S
C2284      C2285   1.420       .  A
C2285      H2292   1.065       .  S
C2286      S2288   1.797       .  S
S2287      H2290   1.407       .  S
S2288      H2289   1.407       .  S
C2293      C2294   1.416       .  A
C2293      C2298   1.417       .  A
C2294      C2295   1.419       .  A
C2294      H2303   1.082       .  S
C2295      C2296   1.418       .  A
C2295      S2299   1.804       .  S
C2296      C2297   1.416       .  A
C2297      C2298   1.418       .  A
C2297      H2304   1.081       .  S
C2298      S2300   1.804       .  S
S2299      H2302   1.407       .  S
S2300      H2301   1.407       .  S
C2305      C2306   1.393       .  A
C2305      C2310   1.416       .  A
C2306      C2307   1.396       .  A
C2306      H2315   1.083       .  S
C2307      C2308   1.414       .  A
C2307      S2311   1.791       .  S
C2308      C2309   1.402       .  A
C2309      C2310   1.397       .  A
C2309      H2316   1.081       .  S
C2310      S2312   1.804       .  S
S2311      H2314   1.406       .  S
S2312      H2313   1.407       .  S
C2317      C2318   1.393       .  A
C2317      C2322   1.416       .  A
C2318      C2319   1.389       .  A
C2318      H2327   1.085       .  S
C2319      C2320   1.411       .  A
C2320      C2321   1.399       .  A
C2321      C2322   1.392       .  A
C2322      S2324   1.806       .  S
S2323      H2326   1.406       .  S
S2324      H2325   1.407       .  S
C2329      C2330   1.394       .  A
C2329      C2334   1.415       .  A
C2330      C2331   1.390       .  A
C2330      H2339   1.084       .  S
C2331      C2332   1.410       .  A
C2332      C2333   1.400       .  A
C2333      C2334   1.398       .  A
C2333      H2340   1.078       .  S
C2334      S2336   1.810       .  S
S2335      H2338   1.407       .  S
S2336      H2337   1.408       .  S
C2341      C2342   1.405       .  A
C2341      C2346   1.414       .  A
C2342      C2343   1.399       .  A
C2342      H2351   1.081       .  S
C2343      C2344   1.413       .  A
C2343      S2347   1.802       .  S
C2344      C2345   1.393       .  A
C2345      C2346   1.388       .  A
C2345      H2352   1.083       .  S
C2346      S2348   1.794       .  S
S2347      H2350   1.407       .  S
S2348      H2349   1.407       .  S
C2353      C2354   1.404       .  A
C2353      C2358   1.419       .  A
C2354      C2355   1.392       .  A
C2354      H2363   1.081       .  S
C2355      C2356   1.408       .  A
C2356      C2357   1.402       .  A
C2357      C2358   1.393       .  A
C2357      H2364   1.084       .  S
C2358      S2360   1.804       .  S
S2359      H2362   1.407       .  S
S2360      H2361   1.394       .  S
C2365      C2366   1.399       .  A
C2365      C2370   1.410       .  A
C2366      C2367   1.401       .  A
C2366      H2375   1.084       .  S
C2367      C2368   1.423       .  A
C2368      C2369   1.404       .  A
C2369      C2370   1.395       .  A
C2369      H2376   1.084       .  S
C2370      S2372   1.798       .  S
S2371      H2374   1.408       .  S
S2372      H2373   1.401       .  S
C2377      C2378   1.418       .  A
C2377      C2382   1.414       .  A
C2378      C2379   1.417       .  A
C2378      H2387   1.083       .  S
C2379      C2380   1.414       .  A
C2380      C2381   1.420       .  A
C2381      C2382   1.417       .  A
C2382      S2384   1.793       .  S
S2383      H2386   1.408       .  S
S2384      H2385   1.406       .  S
C2389      C2390   1.403       .  A
C2389      C2394   1.423       .  A
C2390      C2391   1.418       .  A
C2390      H2399   1.083   1_565  S
C2391      C2392   1.426       .  A
C2391      S2395   1.801       .  S
C2392      C2393   1.408       .  A
C2393      C2394   1.424       .  A
C2393      H2400   1.082       .  S
C2394      S2396   1.805       .  S
S2395      H2398   1.406   1_565  S
S2396      H2397   1.406       .  S
C2401      C2402   1.411       .  A
C2401      C2406   1.419       .  A
C2402      C2403   1.417       .  A
C2402      H2411   1.081       .  S
C2403      C2404   1.419       .  A
C2403      S2407   1.797       .  S
C2404      C2405   1.412       .  A
C2405      C2406   1.418       .  A
C2405      H2412   1.083       .  S
C2406      S2408   1.795       .  S
S2407      H2410   1.404       .  S
S2408      H2409   1.405       .  S
C2413      C2414   1.407       .  A
C2413      C2418   1.415       .  A
C2414      C2415   1.407       .  A
C2414      H2423   1.083       .  S
C2415      C2416   1.416       .  A
C2415      S2419   1.802   1_655  S
C2416      C2417   1.392       .  A
C2417      C2418   1.388       .  A
C2417      H2424   1.084       .  S
C2418      S2420   1.787       .  S
S2419      H2422   1.407       .  S
S2420      H2421   1.407       .  S
C2425      C2426   1.387       .  A
C2425      C2430   1.407       .  A
C2426      C2427   1.399       .  A
C2426      H2435   1.084       .  S
C2427      C2428   1.441       .  A
C2427      S2431   1.799       .  S
C2428      C2429   1.404       .  A
C2429      C2430   1.395       .  A
C2429      H2436   1.069       .  S
C2430      S2432   1.800   1_655  S
S2431      H2434   1.408       .  S
C2437      C2438   1.392       .  A
C2437      C2442   1.410       .  A
C2438      C2439   1.393       .  A
C2438      H2447   1.084       .  S
C2439      C2440   1.419       .  A
C2439      S2443   1.801       .  S
C2440      C2441   1.409       .  A
C2441      C2442   1.391       .  A
C2441      H2448   1.083       .  S
C2442      S2444   1.813       .  S
S2443      H2446   1.408       .  S
S2444      H2445   1.399       .  S
C2449      C2450   1.399       .  A
C2449      C2454   1.411       .  A
C2450      C2451   1.403       .  A
C2450      H2459   1.083       .  S
C2451      C2452   1.418       .  A
C2451      S2455   1.809       .  S
C2452      C2453   1.401       .  A
C2453      C2454   1.396       .  A
C2453      H2460   1.083       .  S
C2454      S2456   1.810       .  S
S2455      H2458   1.407   1_565  S
S2456      H2457   1.407       .  S
C2461      C2462   1.402       .  A
C2461      C2466   1.413       .  A
C2462      C2463   1.400       .  A
C2462      H2471   1.084       .  S
C2463      C2464   1.415       .  A
C2463      S2467   1.805       .  S
C2464      C2465   1.403       .  A
C2465      C2466   1.398       .  A
C2465      H2472   1.084       .  S
C2466      S2468   1.805       .  S
S2467      H2470   1.407       .  S
S2468      H2469   1.407       .  S
C2473      C2474   1.401       .  A
C2473      C2478   1.418       .  A
C2474      C2475   1.394       .  A
C2474      H2483   1.084       .  S
C2475      C2476   1.412       .  A
C2476      C2477   1.399       .  A
C2477      C2478   1.399       .  A
C2477      H2484   1.084       .  S
C2478      S2480   1.803       .  S
S2479      H2482   1.407       .  S
S2480      H2481   1.407       .  S
C2485      C2486   1.404       .  A
C2485      C2490   1.411       .  A
C2486      H2495   1.083       .  S
C2487      C2488   1.414   1_545  A
C2487      S2491   1.809       .  S
C2489      C2490   1.396       .  A
C2489      H2496   1.084       .  S
C2490      S2492   1.806       .  S
S2491      H2494   1.407       .  S
S2492      H2493   1.398       .  S
C2497      C2498   1.398       .  A
C2497      C2502   1.410       .  A
C2498      H2507   1.079       .  S
C2499      C2500   1.423       .  A
C2499      S2503   1.811       .  S
C2501      C2502   1.397       .  A
C2501      H2508   1.082   1_655  S
C2502      S2504   1.814       .  S
S2503      H2506   1.407       .  S
S2504      H2505   1.406       .  S
C2509      C2510   1.402       .  A
C2509      C2514   1.401       .  A
C2510      C2511   1.403       .  A
C2510      H2519   1.083       .  S
C2511      C2512   1.421       .  A
C2511      S2515   1.800       .  S
C2512      C2513   1.410       .  A
C2513      C2514   1.388       .  A
C2513      H2520   1.073       .  S
C2514      S2516   1.805       .  S
S2515      H2518   1.406       .  S
S2516      H2517   1.407       .  S
