geometry optimzed in LAMMPS
_audit_creation_date              2020-12-01 
_audit_creation_method            'lammps2cif' 
_symmetry_space_group_name_H-M    'P1' 
_symmetry_Int_Tables_number       1 
_symmetry_cell_setting            triclinic 
loop_ 
_symmetry_equiv_pos_as_xyz 
  x,y,z 
_cell_length_a                    46.23729525 
_cell_length_b                    46.98341003356245 
_cell_length_c                    25.63719401670922 
_cell_angle_alpha                 89.81574142758474 
_cell_angle_beta                  89.88642824484067 
_cell_angle_gamma                 127.04969720344269 
loop_ 
_atom_site_label 
_atom_site_type_symbol 
_atom_site_fract_x 
_atom_site_fract_y 
_atom_site_fract_z 
_atom_site_charge 
C1          C  0.36189266  0.02684617  0.25264411     0.03200
C2          C  0.34042957  0.98943140  0.25175667    -0.13000
C3          C  0.33224870  0.97086103  0.20484869     0.00700
C4          C  0.34428373  0.98995435  0.15779822    -0.11500
C5          C  0.36484017  0.02731334  0.15714198     0.03200
C6          C  0.37368127  0.04568843  0.20480797    -0.10900
H7          H  0.32971354  0.97446098  0.28788152     0.08700
H8          H  0.33774334  0.97564249  0.12143529     0.06300
H9          H  0.39053099  0.07454390  0.20455409     0.06100
O10         O  0.16435409  0.43232414  0.21900796    -0.57800
C11         C  0.24498014  0.52608160  0.26463397     0.74800
O12         O  0.21603980  0.41873663  0.33863426    -0.58900
C13         C  0.14474896  0.41760117  0.25933685     0.74800
C14         C  0.24488774  0.43763421  0.17018394     0.77200
Cd15       Cd  0.22133974  0.45415958  0.26227452     1.37500
O16         O  0.21163473  0.50031537  0.26297143    -0.57800
O17         O  0.25967337  0.46917721  0.18495960    -0.56600
C18         C  0.24457328  0.44441464  0.36055487     0.77200
O19         O  0.22021449  0.41318162  0.19954993    -0.59000
O20         O  0.26696181  0.51850978  0.26517478    -0.57400
O21         O  0.16060574  0.41903229  0.30057125    -0.57400
O22         O  0.26314531  0.47342812  0.33541585    -0.56600
O23         O  0.22343187  0.69469828  0.23458415    -0.57800
C24         C  0.22188199  0.61463217  0.25351949     0.74800
O25         O  0.12298913  0.58683958  0.29637025    -0.58900
C26         C  0.20534757  0.70602827  0.22355773     0.74800
C27         C  0.13883617  0.60274723  0.13865510     0.77200
Cd28       Cd  0.17264416  0.63178016  0.23823309     1.37500
O29         O  0.23298264  0.64655788  0.24902749    -0.57800
O30         O  0.12146123  0.60290969  0.17675037    -0.56600
C31         C  0.13371274  0.60665397  0.33603090     0.77200
O32         O  0.17155149  0.61566829  0.14697151    -0.59000
O33         O  0.18804612  0.59061258  0.25093821    -0.57400
O34         O  0.17136324  0.68276995  0.21966100    -0.57400
O35         O  0.16119777  0.63866388  0.32960663    -0.56600
C36         C  0.24705191  0.60585298  0.26054544     0.80300
N37         N  0.28320716  0.63227933  0.26445082    -0.78100
C38         C  0.30664827  0.62404026  0.26873664     0.82700
N39         N  0.29391584  0.58948281  0.26894256    -0.78000
C40         C  0.25791159  0.56305618  0.26543953     0.82800
N41         N  0.23443155  0.57122144  0.26120252    -0.79700
O42         O  0.44556156  0.67851477  0.23023841    -0.57800
C43         C  0.34561975  0.65201112  0.27205599     0.74800
O44         O  0.45590430  0.75728927  0.33928742    -0.58900
C45         C  0.45817802  0.67333246  0.26978345     0.74800
C46         C  0.44212426  0.75048608  0.18807268     0.77200
Cd47       Cd  0.42205607  0.70590552  0.27860700     1.37500
O48         O  0.36783304  0.64475847  0.26857429    -0.57800
O49         O  0.41075126  0.73342907  0.20793154    -0.56600
C50         C  0.43895846  0.73880489  0.37959693     0.77200
O51         O  0.46513065  0.74941564  0.21280325    -0.59000
O52         O  0.35867983  0.68435802  0.27851553    -0.57400
O53         O  0.45373200  0.68292244  0.31317954    -0.57400
O54         O  0.41408852  0.70608754  0.37236636    -0.56600
C55         C  0.59742600  0.52319173  0.19301213     0.03200
C56         C  0.58166138  0.54098802  0.19668662    -0.13000
C57         C  0.57643712  0.55092931  0.24516833     0.00700
C58         C  0.58729985  0.54314206  0.29046331    -0.11500
C59         C  0.60341554  0.52569869  0.28792367     0.03200
C60         C  0.60838224  0.51567013  0.23897236    -0.10900
H61         H  0.57419678  0.54794777  0.16153434     0.08700
H62         H  0.58217479  0.54978027  0.32809581     0.06300
H63         H  0.62046097  0.50185865  0.23673808     0.06100
C64         C  0.83317114  0.31849532  0.30623330     0.03200
C65         C  0.86862997  0.32871197  0.30696073    -0.13000
C66         C  0.88796223  0.33603365  0.26050423     0.00700
C67         C  0.87156485  0.33305896  0.21289063    -0.11500
C68         C  0.83576215  0.32195686  0.21088320     0.03200
C69         C  0.81686429  0.31522292  0.25809758    -0.10900
H70         H  0.88149682  0.33165121  0.34391292     0.08700
H71         H  0.88676906  0.33900351  0.17713486     0.06300
H72         H  0.78905438  0.30606559  0.25755755     0.06100
C73         C  0.02066067  0.52669000  0.78713244     0.03200
C74         C  0.03636464  0.52907323  0.73874324    -0.13000
C75         C  0.01924385  0.52664610  0.69178974     0.00700
C76         C  0.98600451  0.52154893  0.69402671    -0.11500
C77         C  0.96990147  0.51868131  0.74201741     0.03200
C78         C  0.98724041  0.52109725  0.78827257    -0.10900
H79         H  0.06199393  0.53305042  0.73777957     0.08700
H80         H  0.97289826  0.52062986  0.65842362     0.06300
H81         H  0.97542859  0.52031972  0.82530499     0.06100
C82         C  0.30775639  0.40802195  0.71528292     0.03200
C83         C  0.32059778  0.38768404  0.71037816    -0.13000
C84         C  0.32424973  0.37224242  0.75403603     0.00700
C85         C  0.31534221  0.37752710  0.80349248    -0.11500
C86         C  0.30241180  0.39781727  0.80961957     0.03200
C87         C  0.29862826  0.41299449  0.76508305    -0.09900
H88         H  0.32620742  0.38238414  0.67202209     0.08700
H89         H  0.31904143  0.36617089  0.83731443     0.06300
H90         H  0.28816697  0.42821858  0.76898767     0.06100
O91         O  0.71320927  0.47384033  0.70785533    -0.57800
C92         C  0.61601279  0.36311522  0.74699162     0.74800
O93         O  0.66534321  0.48259826  0.80983870    -0.58900
C94         C  0.72675768  0.47067331  0.74828476     0.74800
C95         C  0.63857439  0.45750201  0.64199810     0.77200
Cd96       Cd  0.65095532  0.43874233  0.74250323     1.37500
O97         O  0.64915457  0.38646714  0.75660294    -0.57800
O98         O  0.64805405  0.43746989  0.64744908    -0.56600
C99         C  0.63506547  0.46338721  0.83304459     0.77200
O100        O  0.63389089  0.46874088  0.68363129    -0.59000
O101        O  0.59767037  0.37430033  0.73664177    -0.57400
O102        O  0.70551785  0.45426701  0.78653920    -0.57400
O103        O  0.61108402  0.43373818  0.81207717    -0.56600
C104        C  0.60997207  0.28122656  0.75091266     0.80300
N105        N  0.62303367  0.31587624  0.75358077    -0.78100
C106        C  0.60061557  0.32521108  0.74664290     0.82700
N107        N  0.56485839  0.29960560  0.73684949    -0.78000
C108        C  0.55170402  0.26479091  0.73407040     0.82800
N109        N  0.57435937  0.25581599  0.74092719    -0.79700
O110        O  0.49031363  0.24300554  0.72294575    -0.57800
C111        C  0.40485638  0.21681654  0.70996631     0.74800
O112        O  0.40290850  0.12770696  0.64709360    -0.58900
C113        C  0.51330229  0.23674320  0.72356506     0.74800
C114        C  0.41602322  0.13639584  0.79729273     0.77200
Cd115      Cd  0.43758622  0.18086486  0.70559857     1.37500
O116        O  0.41885646  0.21580748  0.66825495    -0.57800
O117        O  0.44644400  0.15074850  0.77525469    -0.56600
C118        C  0.42060535  0.14445452  0.60622174     0.77200
O119        O  0.39427079  0.14028033  0.77461298    -0.59000
O120        O  0.40456575  0.19980218  0.74852188    -0.57400
O121        O  0.50151127  0.20491556  0.71509319    -0.57400
O122        O  0.44602581  0.17720052  0.61182810    -0.56600
O123        O  0.62759097  0.18673907  0.76273132    -0.57800
C124        C  0.63426509  0.27116250  0.75608826     0.74800
O125        O  0.73348002  0.28852295  0.81797648    -0.58900
C126        C  0.64490526  0.17391754  0.75882520     0.74800
C127        C  0.71662885  0.27215676  0.65979038     0.77200
Cd128      Cd  0.68037168  0.24950563  0.76006536     1.37500
O129        O  0.62221607  0.23893181  0.75245113    -0.57800
O130        O  0.68472706  0.26233842  0.66615771    -0.56600
C131        C  0.71642908  0.27342772  0.86001404     0.77200
O132        O  0.73254457  0.27270776  0.70033232    -0.59000
O133        O  0.66804874  0.29397019  0.76326427    -0.57400
O134        O  0.67902423  0.19616507  0.75561958    -0.57400
O135        O  0.68298912  0.24838957  0.85562515    -0.56600
C136        C  0.49408796  0.85191315  0.73282040     0.03200
C137        C  0.48473455  0.83586626  0.78242493    -0.13000
C138        C  0.49313691  0.85662056  0.82730271     0.00700
C139        C  0.50969210  0.89319242  0.82181989    -0.11500
C140        C  0.51843297  0.90930917  0.77238399     0.03200
C141        C  0.51084781  0.88851525  0.72812026    -0.10900
H142        H  0.47219085  0.80765858  0.78609095     0.08700
H143        H  0.51605063  0.90923352  0.85629312     0.06300
H144        H  0.51724534  0.90061741  0.68967099     0.06100
C145        C  0.54134234  0.00042208  0.79476503    -0.10800
C146        C  0.57063440  0.02182015  0.76036475     0.06300
C147        C  0.58195283  0.00585048  0.72869840    -0.09600
C148        C  0.56463959  0.96920615  0.73196044    -0.11200
C149        C  0.53582082  0.94790318  0.76718880    -0.01000
C150        C  0.52413954  0.96383678  0.79819409    -0.10100
C151        C  0.58975214  0.06080252  0.75844868     0.06400
H152        H  0.60424096  0.02174799  0.70147830     0.08300
H153        H  0.57435307  0.95767909  0.70781264     0.11700
H154        H  0.50166427  0.94797940  0.82513633     0.12000
H155        H  0.53222845  0.01212403  0.81981732     0.08300
C156        C  0.57006896  0.07469112  0.75803246    -0.10800
C157        C  0.58807107  0.11147656  0.75784927    -0.10100
C158        C  0.62611275  0.13508401  0.75816188    -0.01000
C159        C  0.64584099  0.12122915  0.75817281    -0.11200
C160        C  0.62780589  0.08438970  0.75827319    -0.09600
H161        H  0.54071971  0.05705960  0.75760355     0.08300
H162        H  0.57218107  0.12143068  0.75754701     0.12000
H163        H  0.67518802  0.13884425  0.75857643     0.11700
H164        H  0.64358314  0.07431767  0.75922220     0.08300
C165        C  0.36574646  0.26076979  0.76751822    -0.10800
C166        C  0.36777637  0.28099073  0.72518974     0.06300
C167        C  0.38113168  0.27903260  0.67705439    -0.09600
C168        C  0.39254362  0.25758863  0.67164490    -0.11200
C169        C  0.39068634  0.23764254  0.71420754    -0.01000
C170        C  0.37695700  0.23926035  0.76203691    -0.10100
C171        C  0.35642116  0.30432147  0.73181354     0.06400
H172        H  0.38261357  0.29393472  0.64351802     0.08300
H173        H  0.40313624  0.25689575  0.63434392     0.11700
H174        H  0.37550952  0.22440837  0.79563570     0.12000
H175        H  0.35625736  0.26217069  0.80536796     0.08300
C176        C  0.32640720  0.29330230  0.76342987    -0.10800
C177        C  0.31639169  0.31564951  0.77133832    -0.10100
C178        C  0.33589307  0.34929730  0.74730481    -0.01000
C179        C  0.36563464  0.36027250  0.71522163    -0.11200
C180        C  0.37591168  0.33806326  0.70771141    -0.09600
H181        H  0.31036803  0.26719799  0.78167545     0.08300
H182        H  0.29292733  0.30635083  0.79541125     0.12000
H183        H  0.38116370  0.38622209  0.69645798     0.11700
H184        H  0.39948495  0.34757911  0.68379856     0.08300
C185        C  0.89873855  0.53293218  0.71743985    -0.10800
C186        C  0.86993280  0.50629436  0.74913851     0.06300
C187        C  0.87457507  0.48394482  0.77848916    -0.09600
C188        C  0.90711516  0.48817197  0.77633196    -0.11200
C189        C  0.93553523  0.51440671  0.74414148    -0.01000
C190        C  0.93111058  0.53675897  0.71467976    -0.10100
C191        C  0.83472510  0.50084093  0.75035937     0.06400
H192        H  0.85279374  0.46258249  0.80233863     0.08300
H193        H  0.90986412  0.47045539  0.79907222     0.11700
H194        H  0.95293031  0.55755162  0.69016141     0.12000
H195        H  0.89643472  0.55103815  0.69502986     0.08300
C196        C  0.81356116  0.48882052  0.79614645    -0.10800
C197        C  0.77893335  0.48022003  0.79592145    -0.10100
C198        C  0.76486261  0.48389469  0.75011016    -0.01000
C199        C  0.78657044  0.49759982  0.70504008    -0.11200
C200        C  0.82107436  0.50583077  0.70506793    -0.09600
H201        H  0.82351313  0.48555436  0.83212011     0.08300
H202        H  0.76286311  0.46992201  0.83135913     0.12000
H203        H  0.77634199  0.50061783  0.66912604     0.11700
H204        H  0.83632956  0.51463109  0.66892052     0.08300
C205        C  0.78445896  0.29842844  0.55171335    -0.10800
C206        C  0.76469221  0.29446825  0.50714558     0.06300
C207        C  0.72964599  0.28483465  0.51333426    -0.09600
C208        C  0.71429713  0.27829597  0.56309879    -0.11200
C209        C  0.73380175  0.28148113  0.60759268    -0.01000
C210        C  0.76919943  0.29204948  0.60142902    -0.10100
C211        C  0.78037152  0.29929812  0.45446676     0.06400
H212        H  0.71376473  0.28138158  0.47960962     0.08300
H213        H  0.68689386  0.27008714  0.56665455     0.11700
H214        H  0.78490907  0.29484235  0.63497169     0.12000
H215        H  0.81173814  0.30631832  0.54803366     0.08300
C216        C  0.77834424  0.31934692  0.41583642    -0.10800
C217        C  0.79472031  0.32495838  0.36700709    -0.10100
C218        C  0.81331036  0.31056355  0.35610707    -0.01000
C219        C  0.81431216  0.28965658  0.39424702    -0.11200
C220        C  0.79804436  0.28409732  0.44284727    -0.09600
H221        H  0.76496653  0.33144825  0.42392050     0.08300
H222        H  0.79378988  0.34137164  0.33834186     0.12000
H223        H  0.82792888  0.27775094  0.38650867     0.11700
H224        H  0.79933488  0.26791229  0.47151283     0.08300
C225        C  0.77668211  0.31802830  0.10332843    -0.10800
C226        C  0.78587502  0.30607799  0.06085469     0.06300
C227        C  0.81114293  0.29915814  0.06787286    -0.09600
C228        C  0.82675996  0.30377769  0.11661932    -0.11200
C229        C  0.81819774  0.31634659  0.15931617    -0.01000
C230        C  0.79294250  0.32345539  0.15198197    -0.10100
C231        C  0.76828395  0.29954653  0.00964148     0.06400
H232        H  0.81812069  0.28930407  0.03585182     0.08300
H233        H  0.84514571  0.29689028  0.12087673     0.11700
H234        H  0.78600752  0.33358152  0.18359656     0.12000
H235        H  0.75723023  0.32356025  0.09861948     0.08300
C236        C  0.73039010  0.27690555  0.00599545    -0.10800
C237        C  0.71361411  0.26883914  0.95736514    -0.10100
C238        C  0.73441460  0.28369238  0.91147885    -0.01000
C239        C  0.77238220  0.30703409  0.91527963    -0.11200
C240        C  0.78918080  0.31464354  0.96394654    -0.09600
H241        H  0.71379988  0.26471365  0.04071638     0.08300
H242        H  0.68431604  0.25067941  0.95565692     0.12000
H243        H  0.78908902  0.31876820  0.88058468     0.11700
H244        H  0.81849264  0.33223137  0.96598463     0.08300
C245        C  0.61809472  0.49795611  0.53365233    -0.10800
C246        C  0.62674540  0.48706170  0.48899444     0.06300
C247        C  0.63869497  0.46599130  0.49523055    -0.09600
C248        C  0.64219740  0.45624082  0.54496461    -0.11200
C249        C  0.63382678  0.46732938  0.58960952    -0.01000
C250        C  0.62163918  0.48821184  0.58350397    -0.10100
C251        C  0.62335786  0.49768019  0.43611869     0.06400
H252        H  0.64593617  0.45753269  0.46164926     0.08300
H253        H  0.65182730  0.44025824  0.54844389     0.11700
H254        H  0.61488545  0.49702959  0.61720632     0.12000
H255        H  0.60828674  0.51377429  0.53000399     0.08300
C256        C  0.60872128  0.47316036  0.39477176    -0.10800
C257        C  0.60376622  0.48271610  0.34572040    -0.10100
C258        C  0.61330793  0.51693881  0.33716309    -0.01000
C259        C  0.62939082  0.54188901  0.37787311    -0.11200
C260        C  0.63427691  0.53234554  0.42681723    -0.09600
H261        H  0.59987141  0.44617952  0.40086792     0.08300
H262        H  0.59097504  0.46286031  0.31523207     0.12000
H263        H  0.63757672  0.56866934  0.37207658     0.11700
H264        H  0.64642291  0.55205539  0.45753299     0.08300
C265        C  0.58056693  0.49257032  0.05244630    -0.10800
C266        C  0.61286424  0.49767491  0.03885541     0.06300
C267        C  0.63965691  0.50999663  0.07728243    -0.09600
C268        C  0.63445513  0.51757121  0.12771915    -0.11200
C269        C  0.60232537  0.51290686  0.14084752    -0.01000
C270        C  0.57528659  0.49985665  0.10279566    -0.10100
C271        C  0.61833894  0.49002385  0.98487857     0.06400
H272        H  0.66461992  0.51366485  0.06849311     0.08300
H273        H  0.65588999  0.52782082  0.15607050     0.11700
H274        H  0.55000081  0.49549498  0.11186001     0.12000
H275        H  0.55950494  0.48355350  0.02389307     0.08300
C276        C  0.58909222  0.46132274  0.95669057    -0.10800
C277        C  0.59424354  0.45353119  0.90651881    -0.10100
C278        C  0.62875804  0.47416943  0.88334643    -0.01000
C279        C  0.65788228  0.50337014  0.91081878    -0.11200
C280        C  0.65274234  0.51120366  0.96103191    -0.09600
H281        H  0.56231825  0.44412231  0.97394111     0.08300
H282        H  0.57134200  0.43075755  0.88638516     0.12000
H283        H  0.68486430  0.51967559  0.89401648     0.11700
H284        H  0.67574119  0.53389529  0.98111156     0.08300
C285        C  0.50614577  0.63376170  0.30727700    -0.10800
C286        C  0.51109391  0.62364349  0.25855261     0.06300
C287        C  0.49934614  0.63085003  0.21335248    -0.09600
C288        C  0.48242407  0.64732004  0.21689357    -0.11200
C289        C  0.47693994  0.65686035  0.26571347    -0.01000
C290        C  0.48923909  0.65022366  0.31081584    -0.10100
C291        C  0.52791869  0.60510368  0.25501177     0.06400
H292        H  0.50335965  0.62384590  0.17522913     0.08300
H293        H  0.47346926  0.65240657  0.18146955     0.11700
H294        H  0.48540281  0.65735780  0.34895849     0.12000
H295        H  0.51463006  0.62823468  0.34278136     0.08300
C296        C  0.55816206  0.61615146  0.28560588    -0.10800
C297        C  0.57386843  0.59851423  0.28243801    -0.10100
C298        C  0.55964143  0.56949343  0.24861235    -0.01000
C299        C  0.52930894  0.55833818  0.21817644    -0.11200
C300        C  0.51359571  0.57597737  0.22134777    -0.09600
H301        H  0.57000858  0.63878248  0.31141966     0.08300
H302        H  0.59751373  0.60792566  0.30584844     0.12000
H303        H  0.51745348  0.53566496  0.19243482     0.11700
H304        H  0.48989490  0.56649936  0.19803959     0.08300
C305        C  0.44498328  0.79461818  0.94329796    -0.10800
C306        C  0.47160117  0.81247896  0.98214274     0.06300
C307        C  0.50536349  0.84445602  0.96946100    -0.09600
C308        C  0.51230999  0.85852152  0.91908090    -0.11200
C309        C  0.48574220  0.84077920  0.88018036    -0.01000
C310        C  0.45208723  0.80853218  0.89260152    -0.10100
C311        C  0.46446776  0.79778162  0.03572984     0.06400
H312        H  0.52624671  0.85881365  0.99875758     0.08300
H313        H  0.53861221  0.88326131  0.91040198     0.11700
H314        H  0.43111378  0.79447836  0.86337084     0.12000
H315        H  0.41883404  0.76973222  0.95207076     0.08300
C316        C  0.43202374  0.78542137  0.06161590    -0.10800
C317        C  0.42526522  0.77119070  0.11200863    -0.10100
C318        C  0.45080437  0.76899796  0.13732949    -0.01000
C319        C  0.48344243  0.78180850  0.11164580    -0.11200
C320        C  0.49021451  0.79608975  0.06136348    -0.09600
H321        H  0.41194070  0.78681736  0.04285665     0.08300
H322        H  0.39980053  0.76136756  0.13080947     0.12000
H323        H  0.50338218  0.77998710  0.12989085     0.11700
H324        H  0.51528360  0.80512755  0.04201045     0.08300
C325        C  0.48209647  0.80483316  0.49060041    -0.10800
C326        C  0.46394319  0.78253258  0.53421521     0.06300
C327        C  0.43766363  0.74580556  0.52637785    -0.09600
C328        C  0.42958667  0.73173065  0.47608288    -0.11200
C329        C  0.44762675  0.75406613  0.43253816    -0.01000
C330        C  0.47407823  0.79072537  0.44027311    -0.10100
C331        C  0.47195648  0.79777307  0.58747100     0.06400
H332        H  0.42355725  0.72789136  0.55917292     0.08300
H333        H  0.40924513  0.70327636  0.47133203     0.11700
H334        H  0.48838525  0.80853069  0.40743177     0.12000
H335        H  0.50208478  0.83333928  0.49528250     0.08300
C336        C  0.50770152  0.82559658  0.60162814    -0.10800
C337        C  0.51496805  0.84220498  0.64989704    -0.10100
C338        C  0.48672630  0.83105223  0.68521018    -0.01000
C339        C  0.45122472  0.80214714  0.67243925    -0.11200
C340        C  0.44384669  0.78571420  0.62381524    -0.09600
H341        H  0.53001160  0.83493505  0.57500219     0.08300
H342        H  0.54259411  0.86433935  0.65932756     0.12000
H343        H  0.42906213  0.79341591  0.69907244     0.11700
H344        H  0.41598874  0.76454785  0.61389439     0.08300
C345        C  0.03769110  0.52115910  0.92968881    -0.10800
C346        C  0.07398082  0.55119868  0.93514221     0.06300
C347        C  0.09367488  0.57080072  0.89026637    -0.09600
C348        C  0.07687118  0.56165426  0.84151318    -0.11200
C349        C  0.04002470  0.53282793  0.83673167    -0.01000
C350        C  0.02089274  0.51213417  0.88106985    -0.10100
C351        C  0.09044905  0.56320136  0.98774491     0.06400
H352        H  0.12157604  0.59426671  0.89314506     0.08300
H353        H  0.09216840  0.57829952  0.80809325     0.11700
H354        H  0.99260814  0.48941785  0.87831171     0.12000
H355        H  0.02203501  0.50497139  0.96323573     0.08300
C356        C  0.06988832  0.56131006  0.03002184    -0.10800
C357        C  0.08549824  0.57381164  0.07914274    -0.10100
C358        C  0.12204600  0.58857729  0.08708643    -0.01000
C359        C  0.14260711  0.59026920  0.04506237    -0.11200
C360        C  0.12697809  0.57772059  0.99588751    -0.09600
H361        H  0.04187867  0.55092611  0.02489923     0.08300
H362        H  0.06903613  0.57227614  0.11076475     0.12000
H363        H  0.17086990  0.60149615  0.05009010     0.11700
H364        H  0.14344967  0.57924510  0.96430880     0.08300
C365        C  0.07470764  0.54275110  0.44512996    -0.10800
C366        C  0.08572336  0.56597434  0.48762737     0.06300
C367        C  0.11170095  0.60284858  0.47915826    -0.09600
C368        C  0.12677572  0.61611834  0.42971448    -0.11200
C369        C  0.11597108  0.59286547  0.38745906    -0.01000
C370        C  0.08960093  0.55608207  0.39553228    -0.10100
C371        C  0.06956906  0.55220879  0.54033865     0.06400
H372        H  0.12015851  0.62159225  0.51067279     0.08300
H373        H  0.14700889  0.64460363  0.42461871     0.11700
H374        H  0.08100511  0.53750526  0.36371714     0.12000
H375        H  0.05501156  0.51421261  0.45033186     0.08300
C376        C  0.03245963  0.52420768  0.54628642    -0.10800
C377        C  0.01648665  0.51433887  0.59581006    -0.10100
C378        C  0.03715756  0.53251240  0.64046048    -0.01000
C379        C  0.07468294  0.55887703  0.63472724    -0.11200
C380        C  0.09071082  0.56846646  0.58528418    -0.09600
H381        H  0.01534531  0.51102852  0.51258296     0.08300
H382        H  0.98765118  0.49328680  0.59896010     0.12000
H383        H  0.09147024  0.57351253  0.66812347     0.11700
H384        H  0.11956163  0.58944884  0.58217029     0.08300
C385        C  0.04974089  0.37740005  0.30580057    -0.10800
C386        C  0.03260754  0.37474809  0.25894289     0.06300
C387        C  0.05196860  0.38391924  0.21179538    -0.09600
C388        C  0.08819654  0.39690181  0.21173126    -0.11200
C389        C  0.10565893  0.40073809  0.25877913    -0.01000
C390        C  0.08593744  0.39023794  0.30571046    -0.10100
C391        C  0.99538976  0.36442260  0.25946493     0.06400
H392        H  0.03921947  0.38153490  0.17501610     0.08300
H393        H  0.10271957  0.40456346  0.17495550     0.11700
H394        H  0.09880243  0.39302997  0.34256038     0.12000
H395        H  0.03558905  0.37084491  0.34274543     0.08300
C396        C  0.96846898  0.33681578  0.29210286    -0.10800
C397        C  0.93363626  0.32783287  0.29300326    -0.10100
C398        C  0.92514120  0.34628274  0.26126652    -0.01000
C399        C  0.95215084  0.37403115  0.22901792    -0.11200
C400        C  0.98688395  0.38299799  0.22812708    -0.09600
H401        H  0.97422653  0.32189164  0.31636428     0.08300
H402        H  0.91314536  0.30602022  0.31773925     0.12000
H403        H  0.94648156  0.38904877  0.20481287     0.11700
H404        H  0.00730405  0.40492827  0.20349165     0.08300
C405        C  0.29394769  0.44083629  0.92808310    -0.10800
C406        C  0.27798709  0.41303215  0.96514779     0.06300
C407        C  0.26904116  0.37989735  0.94997566    -0.09600
C408        C  0.27624370  0.37481484  0.89931213    -0.11200
C409        C  0.29290071  0.40281926  0.86256776    -0.01000
C410        C  0.30138071  0.43581407  0.87744626    -0.10100
C411        C  0.27058764  0.41853966  0.01928042     0.06400
H412        H  0.25698749  0.35797338  0.97750440     0.08300
H413        H  0.26876183  0.34885164  0.88894206     0.11700
H414        H  0.31444758  0.45801170  0.85028444     0.12000
H415        H  0.30058560  0.46651541  0.93810864     0.08300
C416        C  0.29481382  0.45137463  0.04446563    -0.10800
C417        C  0.28697956  0.45718275  0.09422783    -0.10100
C418        C  0.25499159  0.43014816  0.12022741    -0.01000
C419        C  0.23137472  0.39691813  0.09604207    -0.11200
C420        C  0.23897509  0.39122798  0.04597693    -0.09600
H421        H  0.31979289  0.47270775  0.02560801     0.08300
H422        H  0.30575715  0.48302669  0.11211572     0.12000
H423        H  0.20634021  0.37574705  0.11500949     0.11700
H424        H  0.21949098  0.36576636  0.02758501     0.08300
C425        C  0.26033026  0.42308842  0.61125153    -0.10800
C426        C  0.28457540  0.43469697  0.56917613     0.06300
C427        C  0.31824186  0.44158281  0.57728311    -0.09600
C428        C  0.32667860  0.43497900  0.62586707    -0.11200
C429        C  0.30162281  0.42139958  0.66732304    -0.01000
C430        C  0.26887298  0.41668495  0.66007476    -0.10100
C431        C  0.27405495  0.43749790  0.51613506     0.06400
H432        H  0.33734600  0.45052534  0.54538178     0.08300
H433        H  0.35232909  0.43928903  0.63055199     0.11700
H434        H  0.24899021  0.40607891  0.69118756     0.12000
H435        H  0.23436015  0.41800680  0.60588309     0.08300
C436        C  0.24093672  0.40890618  0.49499110    -0.10800
C437        C  0.23166179  0.41073126  0.44389412    -0.10100
C438        C  0.25520966  0.44134774  0.41330015    -0.01000
C439        C  0.28827064  0.46999575  0.43463695    -0.11200
C440        C  0.29771296  0.46798056  0.48547414    -0.09600
H441        H  0.22250725  0.38493161  0.51777573     0.08300
H442        H  0.20591817  0.38837190  0.42855065     0.12000
H443        H  0.30682673  0.49404265  0.41207592     0.11700
H444        H  0.32337274  0.49033558  0.50105713     0.08300
C445        C  0.38299394  0.09308197  0.35945329    -0.10800
C446        C  0.38807206  0.07825620  0.40299434     0.06300
C447        C  0.38570058  0.04729700  0.39632982    -0.09600
C448        C  0.37817072  0.03134536  0.34742221    -0.11200
C449        C  0.37209446  0.04550494  0.30390812    -0.01000
C450        C  0.37492604  0.07680392  0.31049261    -0.10100
C451        C  0.39611902  0.09508469  0.45518222     0.06400
H452        H  0.39024134  0.03569367  0.42887180     0.08300
H453        H  0.37737742  0.00793640  0.34375334     0.11700
H454        H  0.37006360  0.08827388  0.27817575     0.12000
H455        H  0.38444663  0.11684754  0.36354378     0.08300
C456        C  0.42127842  0.13221412  0.46035123    -0.10800
C457        C  0.42932162  0.14807051  0.50947264    -0.10100
C458        C  0.41215796  0.12720133  0.55453318    -0.01000
C459        C  0.38684505  0.09006419  0.54944831    -0.11200
C460        C  0.37904023  0.07414610  0.50027747    -0.09600
H461        H  0.43515846  0.14896913  0.42642583     0.08300
H462        H  0.44893135  0.17677565  0.51212468     0.12000
H463        H  0.37316004  0.07332768  0.58345537     0.11700
H464        H  0.35929449  0.04546793  0.49741306     0.08300
C465        C  0.42520877  0.09774992  0.92031613    -0.10800
C466        C  0.39594640  0.09020907  0.95063758     0.06300
C467        C  0.37192644  0.09585650  0.92863328    -0.09600
C468        C  0.37748460  0.10938823  0.87784677    -0.11200
C469        C  0.40735646  0.11783948  0.84819343    -0.01000
C470        C  0.43089060  0.11147926  0.86976839    -0.10100
C471        C  0.39035263  0.07609194  0.00471328     0.06400
H472        H  0.34878811  0.08974496  0.95067469     0.08300
H473        H  0.35897723  0.11416632  0.86234763     0.11700
H474        H  0.45422932  0.11787021  0.84797340     0.12000
H475        H  0.44433025  0.09392142  0.93618858     0.08300
C476        C  0.39544412  0.05012632  0.01605317    -0.10800
C477        C  0.38871890  0.03555492  0.06610413    -0.10100
C478        C  0.37654033  0.04641065  0.10613867    -0.01000
C479        C  0.37281025  0.07340659  0.09549652    -0.11200
C480        C  0.37952618  0.08801820  0.04521374    -0.09600
H481        H  0.40362802  0.04025804  0.98579695     0.08300
H482        H  0.39240319  0.01519807  0.07326720     0.12000
H483        H  0.36337468  0.08223395  0.12549823     0.11700
H484        H  0.37597677  0.10844890  0.03788854     0.08300
C485        C  0.30238958  0.87918229  0.24458780    -0.10800
C486        C  0.27637912  0.85727837  0.20659471     0.06300
C487        C  0.26827222  0.87291805  0.16824652    -0.09600
C488        C  0.28613920  0.90977586  0.16769386    -0.11200
C489        C  0.31243603  0.93164352  0.20547909    -0.01000
C490        C  0.32033611  0.91588467  0.24384036    -0.10100
C491        C  0.25815977  0.81834321  0.20737074     0.06400
H492        H  0.24852239  0.85675296  0.13826143     0.08300
H493        H  0.27923482  0.92111885  0.13791990     0.11700
H494        H  0.34081948  0.93201443  0.27303314     0.12000
H495        H  0.30881474  0.86792554  0.27521537     0.08300
C496        C  0.27790234  0.80552754  0.22059810    -0.10800
C497        C  0.26068667  0.76905139  0.22508960    -0.10100
C498        C  0.22331966  0.74446107  0.21625268    -0.01000
C499        C  0.20363349  0.75704532  0.20131411    -0.11200
C500        C  0.22092720  0.79371631  0.19685284    -0.09600
H501        H  0.30676974  0.82375800  0.22771389     0.08300
H502        H  0.27664566  0.76013817  0.23615240     0.12000
H503        H  0.17481605  0.73860167  0.19390505     0.11700
H504        H  0.20496716  0.80278691  0.18678006     0.08300
loop_ 
_geom_bond_atom_site_label_1 
_geom_bond_atom_site_label_2 
_geom_bond_distance 
_geom_bond_site_symmetry_2 
_ccdc_geom_bond_type 
C1            C2   1.405   1_545  A
C1            C6   1.412       .  A
C1          C449   1.493       .  S
C2            C3   1.401       .  A
C2            H7   1.083       .  S
C3            C4   1.399       .  A
C3          C489   1.483       .  S
C4            C5   1.405   1_565  A
C4            H8   1.083       .  S
C5            C6   1.410       .  A
C5          C478   1.487       .  S
C6            H9   1.083       .  S
O10          C13   1.267       .  A
O10         Cd15   2.447       .  S
C11          C40   1.458       .  S
C11          O20   1.263       .  A
C11          O16   1.263       .  A
O12          C18   1.265       .  A
O12         Cd15   2.480       .  S
C13         C389   1.473       .  S
C13          O21   1.266       .  A
C14         C418   1.477       .  S
C14          O19   1.265       .  A
C14          O17   1.261       .  A
Cd15         O22   2.447       .  S
Cd15         O21   2.443       .  S
Cd15         O20   2.432       .  S
Cd15         O16   2.465       .  S
Cd15         O19   2.489       .  S
Cd15         O17   2.457       .  S
C18         C438   1.476       .  S
C18          O22   1.262       .  A
O23          C26   1.264       .  A
O23         Cd28   2.428       .  S
C24          C36   1.461       .  S
C24          O33   1.264       .  A
C24          O29   1.264       .  A
O25          C31   1.264       .  A
O25         Cd28   2.465       .  S
C26         C498   1.475       .  S
C26          O34   1.267       .  A
C27         C358   1.477       .  S
C27          O32   1.264       .  A
C27          O30   1.266       .  A
Cd28         O35   2.465       .  S
Cd28         O34   2.477       .  S
Cd28         O33   2.452       .  S
Cd28         O29   2.452       .  S
Cd28         O32   2.453       .  S
Cd28         O30   2.467       .  S
C31         C369   1.477       .  S
C31          O35   1.264       .  A
C36          N37   1.359       .  A
C36          N41   1.358       .  A
N37          C38   1.357       .  A
C38          C43   1.459       .  S
C38          N39   1.353       .  A
N39          C40   1.353       .  A
C40          N41   1.356       .  A
O42          C45   1.265       .  A
O42         Cd47   2.463       .  S
C43          O52   1.264       .  A
C43          O48   1.265       .  A
O44          C50   1.268       .  A
O44         Cd47   2.486       .  S
C45         C289   1.474       .  S
C45          O53   1.264       .  A
C46         C318   1.476       .  S
C46          O51   1.266       .  A
C46          O49   1.265       .  A
Cd47         O54   2.432       .  S
Cd47         O53   2.450       .  S
Cd47         O52   2.457       .  S
Cd47         O48   2.436       .  S
Cd47         O51   2.460       .  S
Cd47         O49   2.456       .  S
C50         C329   1.476       .  S
C50          O54   1.262       .  A
C55          C56   1.405       .  A
C55          C60   1.409       .  A
C55         C269   1.486       .  S
C56          C57   1.400       .  A
C56          H61   1.083       .  S
C57          C58   1.398       .  A
C57         C298   1.479       .  S
C58          C59   1.403       .  A
C58          H62   1.084       .  S
C59          C60   1.408       .  A
C59         C258   1.483       .  S
C60          H63   1.083       .  S
C64          C65   1.404       .  A
C64          C69   1.407       .  A
C64         C218   1.482       .  S
C65          C66   1.399       .  A
C65          H70   1.084       .  S
C66          C67   1.401       .  A
C66         C398   1.480       .  S
C67          C68   1.405       .  A
C67          H71   1.082       .  S
C68          C69   1.410       .  A
C68         C229   1.492       .  S
C69          H72   1.083       .  S
C73          C74   1.406       .  A
C73          C78   1.403   1_455  A
C73         C349   1.482       .  S
C74          C75   1.409       .  A
C74          H79   1.083       .  S
C75          C76   1.407   1_455  A
C75         C378   1.487       .  S
C76          C77   1.400       .  A
C76          H80   1.083       .  S
C77          C78   1.399       .  A
C77         C189   1.478       .  S
C78          H81   1.084       .  S
C82          C83   1.402       .  A
C82          C87   1.408       .  A
C82         C429   1.483       .  S
C83          C84   1.397       .  A
C83          H88   1.084       .  S
C84          C85   1.401       .  A
C84         C178   1.477       .  S
C85          C86   1.407       .  A
C85          H89   1.083       .  S
C86          C87   1.410       .  A
C86         C409   1.488       .  S
C87          H90   1.083       .  S
O91          C94   1.266       .  A
O91         Cd96   2.461       .  S
C92         C106   1.467       .  S
C92         O101   1.266       .  A
C92          O97   1.261       .  A
O93          C99   1.265       .  A
O93         Cd96   2.458       .  S
C94         C198   1.474       .  S
C94         O102   1.265       .  A
C95         C249   1.478       .  S
C95         O100   1.267       .  A
C95          O98   1.263       .  A
Cd96        O103   2.469       .  S
Cd96        O102   2.443       .  S
Cd96        O101   2.505       .  S
Cd96         O97   2.433       .  S
Cd96        O100   2.494       .  S
Cd96         O98   2.440       .  S
C99         C278   1.478       .  S
C99         O103   1.267       .  A
C104        C124   1.464       .  S
C104        N105   1.355       .  A
C104        N109   1.355       .  A
N105        C106   1.359       .  A
C106        N107   1.360       .  A
N107        C108   1.361       .  A
C108        C113   1.465       .  S
C108        N109   1.356       .  A
O110        C113   1.262       .  A
O110       Cd115   2.470       .  S
C111        C169   1.474       .  S
C111        O120   1.264       .  A
C111        O116   1.265       .  A
O112        C118   1.266       .  A
O112       Cd115   2.503       .  S
C113        O121   1.265       .  A
C114        C469   1.481       .  S
C114        O119   1.267       .  A
C114        O117   1.266       .  A
Cd115       O122   2.458       .  S
Cd115       O121   2.460       .  S
Cd115       O120   2.443       .  S
Cd115       O116   2.463       .  S
Cd115       O119   2.478       .  S
Cd115       O117   2.458       .  S
C118        C458   1.481       .  S
C118        O122   1.262       .  A
O123        C126   1.263       .  A
O123       Cd128   2.446       .  S
C124        O133   1.268       .  A
C124        O129   1.264       .  A
O125        C131   1.266       .  A
O125       Cd128   2.490       .  S
C126        C158   1.474       .  S
C126        O134   1.265       .  A
C127        C209   1.479       .  S
C127        O132   1.266       .  A
C127        O130   1.262       .  A
Cd128       O135   2.455       .  S
Cd128       O134   2.472       .  S
Cd128       O133   2.476       .  S
Cd128       O129   2.431       .  S
Cd128       O132   2.482       .  S
Cd128       O130   2.458       .  S
C131        C238   1.480       .  S
C131        O135   1.264       .  A
C136        C137   1.404       .  A
C136        C141   1.402       .  A
C136        C338   1.474       .  S
C137        C138   1.406       .  A
C137        H142   1.084       .  S
C138        C139   1.404       .  A
C138        C309   1.481       .  S
C139        C140   1.402       .  A
C139        H143   1.083       .  S
C140        C141   1.400       .  A
C140        C149   1.481       .  S
C141        H144   1.084       .  S
C145        C146   1.404       .  A
C145        C150   1.395   1_545  A
C145        H155   1.083       .  S
C146        C147   1.404       .  A
C146        C151   1.479       .  S
C147        C148   1.396   1_545  A
C147        H152   1.083       .  S
C148        C149   1.405       .  A
C148        H153   1.083       .  S
C149        C150   1.405       .  A
C150        H154   1.083       .  S
C151        C156   1.403       .  A
C151        C160   1.405       .  A
C156        C157   1.395       .  A
C156        H161   1.083       .  S
C157        C158   1.405       .  A
C157        H162   1.083       .  S
C158        C159   1.404       .  A
C159        C160   1.397       .  A
C159        H163   1.083       .  S
C160        H164   1.083       .  S
C165        C166   1.405       .  A
C165        C170   1.393       .  A
C165        H175   1.083       .  S
C166        C167   1.407       .  A
C166        C171   1.483       .  S
C167        C168   1.398       .  A
C167        H172   1.083       .  S
C168        C169   1.404       .  A
C168        H173   1.083       .  S
C169        C170   1.403       .  A
C170        H174   1.083       .  S
C171        C176   1.406       .  A
C171        C180   1.406       .  A
C176        C177   1.395       .  A
C176        H181   1.083       .  S
C177        C178   1.402       .  A
C177        H182   1.083       .  S
C178        C179   1.404       .  A
C179        C180   1.396       .  A
C179        H183   1.083       .  S
C180        H184   1.083       .  S
C185        C186   1.408       .  A
C185        C190   1.397       .  A
C185        H195   1.082       .  S
C186        C187   1.408       .  A
C186        C191   1.488       .  S
C187        C188   1.395       .  A
C187        H192   1.082       .  S
C188        C189   1.402       .  A
C188        H193   1.083       .  S
C189        C190   1.403       .  A
C190        H194   1.083       .  S
C191        C196   1.407       .  A
C191        C200   1.408       .  A
C196        C197   1.395       .  A
C196        H201   1.082       .  S
C197        C198   1.403       .  A
C197        H202   1.083       .  S
C198        C199   1.403       .  A
C199        C200   1.397       .  A
C199        H203   1.083       .  S
C200        H204   1.082       .  S
C205        C206   1.406       .  A
C205        C210   1.397       .  A
C205        H215   1.083       .  S
C206        C207   1.404       .  A
C206        C211   1.482       .  S
C207        C208   1.399       .  A
C207        H212   1.083       .  S
C208        C209   1.407       .  A
C208        H213   1.083       .  S
C209        C210   1.403       .  A
C210        H214   1.083       .  S
C211        C216   1.406       .  A
C211        C220   1.404       .  A
C216        C217   1.401       .  A
C216        H221   1.083       .  S
C217        C218   1.405       .  A
C217        H222   1.083       .  S
C218        C219   1.404       .  A
C219        C220   1.394       .  A
C219        H223   1.083       .  S
C220        H224   1.083       .  S
C225        C226   1.404       .  A
C225        C230   1.400       .  A
C225        H235   1.083       .  S
C226        C227   1.400       .  A
C226        C231   1.478       .  S
C227        C228   1.395       .  A
C227        H232   1.083       .  S
C228        C229   1.410       .  A
C228        H233   1.082       .  S
C229        C230   1.407       .  A
C230        H234   1.082       .  S
C231        C236   1.402       .  A
C231        C240   1.405   1_554  A
C236        C237   1.397   1_554  A
C236        H241   1.083       .  S
C237        C238   1.406       .  A
C237        H242   1.083       .  S
C238        C239   1.406       .  A
C239        C240   1.400       .  A
C239        H243   1.083       .  S
C240        H244   1.083       .  S
C245        C246   1.408       .  A
C245        C250   1.399       .  A
C245        H255   1.083       .  S
C246        C247   1.403       .  A
C246        C251   1.484       .  S
C247        C248   1.396       .  A
C247        H252   1.083       .  S
C248        C249   1.406       .  A
C248        H253   1.083       .  S
C249        C250   1.404       .  A
C250        H254   1.083       .  S
C251        C256   1.407       .  A
C251        C260   1.404       .  A
C256        C257   1.399       .  A
C256        H261   1.083       .  S
C257        C258   1.404       .  A
C257        H262   1.083       .  S
C258        C259   1.406       .  A
C259        C260   1.395       .  A
C259        H263   1.083       .  S
C260        H264   1.083       .  S
C265        C266   1.405       .  A
C265        C270   1.395       .  A
C265        H275   1.082       .  S
C266        C267   1.409       .  A
C266        C271   1.490   1_554  S
C267        C268   1.400       .  A
C267        H272   1.082       .  S
C268        C269   1.405       .  A
C268        H273   1.083       .  S
C269        C270   1.406       .  A
C270        H274   1.083       .  S
C271        C276   1.408       .  A
C271        C280   1.407       .  A
C276        C277   1.397       .  A
C276        H281   1.082       .  S
C277        C278   1.403       .  A
C277        H282   1.083       .  S
C278        C279   1.405       .  A
C279        C280   1.399       .  A
C279        H283   1.083       .  S
C280        H284   1.083       .  S
C285        C286   1.404       .  A
C285        C290   1.395       .  A
C285        H295   1.083       .  S
C286        C287   1.405       .  A
C286        C291   1.480       .  S
C287        C288   1.396       .  A
C287        H292   1.083       .  S
C288        C289   1.404       .  A
C288        H293   1.083       .  S
C289        C290   1.404       .  A
C290        H294   1.083       .  S
C291        C296   1.404       .  A
C291        C300   1.405       .  A
C296        C297   1.395       .  A
C296        H301   1.083       .  S
C297        C298   1.405       .  A
C297        H302   1.083       .  S
C298        C299   1.404       .  A
C299        C300   1.395       .  A
C299        H303   1.083       .  S
C300        H304   1.083       .  S
C305        C306   1.406       .  A
C305        C310   1.400       .  A
C305        H315   1.083       .  S
C306        C307   1.403       .  A
C306        C311   1.480   1_556  S
C307        C308   1.395       .  A
C307        H312   1.083       .  S
C308        C309   1.405       .  A
C308        H313   1.083       .  S
C309        C310   1.404       .  A
C310        H314   1.083       .  S
C311        C316   1.404       .  A
C311        C320   1.404       .  A
C316        C317   1.398       .  A
C316        H321   1.083       .  S
C317        C318   1.406       .  A
C317        H322   1.083       .  S
C318        C319   1.404       .  A
C319        C320   1.396       .  A
C319        H323   1.083       .  S
C320        H324   1.083       .  S
C325        C326   1.408       .  A
C325        C330   1.397       .  A
C325        H335   1.083       .  S
C326        C327   1.404       .  A
C326        C331   1.484       .  S
C327        C328   1.396       .  A
C327        H332   1.083       .  S
C328        C329   1.406       .  A
C328        H333   1.083       .  S
C329        C330   1.402       .  A
C330        H334   1.083       .  S
C331        C336   1.405       .  A
C331        C340   1.408       .  A
C336        C337   1.395       .  A
C336        H341   1.083       .  S
C337        C338   1.403       .  A
C337        H342   1.083       .  S
C338        C339   1.402       .  A
C339        C340   1.399       .  A
C339        H343   1.083       .  S
C340        H344   1.083       .  S
C345        C346   1.406       .  A
C345        C350   1.395       .  A
C345        H355   1.083       .  S
C346        C347   1.407       .  A
C346        C351   1.486       .  S
C347        C348   1.398       .  A
C347        H352   1.083       .  S
C348        C349   1.405       .  A
C348        H353   1.083       .  S
C349        C350   1.404       .  A
C350        H354   1.083   1_455  S
C351        C356   1.407   1_556  A
C351        C360   1.406       .  A
C356        C357   1.396       .  A
C356        H361   1.083       .  S
C357        C358   1.403       .  A
C357        H362   1.083       .  S
C358        C359   1.405       .  A
C359        C360   1.398   1_554  A
C359        H363   1.083       .  S
C360        H364   1.083       .  S
C365        C366   1.406       .  A
C365        C370   1.398       .  A
C365        H375   1.083       .  S
C366        C367   1.407       .  A
C366        C371   1.487       .  S
C367        C368   1.396       .  A
C367        H372   1.083       .  S
C368        C369   1.403       .  A
C368        H373   1.083       .  S
C369        C370   1.405       .  A
C370        H374   1.083       .  S
C371        C376   1.406       .  A
C371        C380   1.406       .  A
C376        C377   1.397       .  A
C376        H381   1.083       .  S
C377        C378   1.407       .  A
C377        H382   1.083   1_455  S
C378        C379   1.405       .  A
C379        C380   1.396       .  A
C379        H383   1.082       .  S
C380        H384   1.083       .  S
C385        C386   1.404       .  A
C385        C390   1.396       .  A
C385        H395   1.083       .  S
C386        C387   1.406       .  A
C386        C391   1.480   1_455  S
C387        C388   1.395       .  A
C387        H392   1.083       .  S
C388        C389   1.403       .  A
C388        H393   1.083       .  S
C389        C390   1.404       .  A
C390        H394   1.083       .  S
C391        C396   1.405       .  A
C391        C400   1.404       .  A
C396        C397   1.398       .  A
C396        H401   1.083       .  S
C397        C398   1.405       .  A
C397        H402   1.083       .  S
C398        C399   1.404       .  A
C399        C400   1.393       .  A
C399        H403   1.083       .  S
C400        H404   1.083   1_655  S
C405        C406   1.408       .  A
C405        C410   1.399       .  A
C405        H415   1.083       .  S
C406        C407   1.405       .  A
C406        C411   1.489   1_556  S
C407        C408   1.397       .  A
C407        H412   1.082       .  S
C408        C409   1.407       .  A
C408        H413   1.083       .  S
C409        C410   1.405       .  A
C410        H414   1.083       .  S
C411        C416   1.407       .  A
C411        C420   1.408       .  A
C416        C417   1.397       .  A
C416        H421   1.083       .  S
C417        C418   1.404       .  A
C417        H422   1.083       .  S
C418        C419   1.403       .  A
C419        C420   1.399       .  A
C419        H423   1.083       .  S
C420        H424   1.082       .  S
C425        C426   1.404       .  A
C425        C430   1.399       .  A
C425        H435   1.083       .  S
C426        C427   1.402       .  A
C426        C431   1.477       .  S
C427        C428   1.395       .  A
C427        H432   1.083       .  S
C428        C429   1.407       .  A
C428        H433   1.083       .  S
C429        C430   1.405       .  A
C430        H434   1.083       .  S
C431        C436   1.404       .  A
C431        C440   1.403       .  A
C436        C437   1.398       .  A
C436        H441   1.083       .  S
C437        C438   1.404       .  A
C437        H442   1.083       .  S
C438        C439   1.406       .  A
C439        C440   1.396       .  A
C439        H443   1.083       .  S
C440        H444   1.083       .  S
C445        C446   1.407       .  A
C445        C450   1.401       .  A
C445        H455   1.083       .  S
C446        C447   1.402       .  A
C446        C451   1.486       .  S
C447        C448   1.396       .  A
C447        H452   1.083       .  S
C448        C449   1.410       .  A
C448        H453   1.083       .  S
C449        C450   1.406       .  A
C450        H454   1.082       .  S
C451        C456   1.404       .  A
C451        C460   1.407       .  A
C456        C457   1.398       .  A
C456        H461   1.083       .  S
C457        C458   1.406       .  A
C457        H462   1.083       .  S
C458        C459   1.404       .  A
C459        C460   1.400       .  A
C459        H463   1.083       .  S
C460        H464   1.083       .  S
C465        C466   1.406       .  A
C465        C470   1.398       .  A
C465        H475   1.083       .  S
C466        C467   1.407       .  A
C466        C471   1.488   1_556  S
C467        C468   1.401       .  A
C467        H472   1.083       .  S
C468        C469   1.406       .  A
C468        H473   1.083       .  S
C469        C470   1.404       .  A
C470        H474   1.083       .  S
C471        C476   1.404       .  A
C471        C480   1.408       .  A
C476        C477   1.396       .  A
C476        H481   1.083   1_554  S
C477        C478   1.406       .  A
C477        H482   1.083       .  S
C478        C479   1.405       .  A
C479        C480   1.402       .  A
C479        H483   1.083       .  S
C480        H484   1.083       .  S
C485        C486   1.405       .  A
C485        C490   1.392       .  A
C485        H495   1.083       .  S
C486        C487   1.406       .  A
C486        C491   1.483       .  S
C487        C488   1.399       .  A
C487        H492   1.083       .  S
C488        C489   1.406       .  A
C488        H493   1.083       .  S
C489        C490   1.404       .  A
C490        H494   1.083       .  S
C491        C496   1.405       .  A
C491        C500   1.407       .  A
C496        C497   1.392       .  A
C496        H501   1.083       .  S
C497        C498   1.403       .  A
C497        H502   1.083       .  S
C498        C499   1.405       .  A
C499        C500   1.400       .  A
C499        H503   1.083       .  S
C500        H504   1.083       .  S
