geometry optimzed in LAMMPS
_audit_creation_date              2020-11-30 
_audit_creation_method            'lammps2cif' 
_symmetry_space_group_name_H-M    'P1' 
_symmetry_Int_Tables_number       1 
_symmetry_cell_setting            triclinic 
loop_ 
_symmetry_equiv_pos_as_xyz 
  x,y,z 
_cell_length_a                    67.21491168 
_cell_length_b                    67.10025986501775 
_cell_length_c                    40.42403162619331 
_cell_angle_alpha                 89.77743370917082 
_cell_angle_beta                  90.01596354663029 
_cell_angle_gamma                 120.27247132429505 
loop_ 
_atom_site_label 
_atom_site_type_symbol 
_atom_site_fract_x 
_atom_site_fract_y 
_atom_site_fract_z 
_atom_site_charge 
O1          O  0.58383003  0.39606495  0.44231965    -0.88100
C2          C  0.60714679  0.43886995  0.52109489     0.87900
Mg3        Mg  0.58912516  0.40747883  0.39220509     1.58100
O4          O  0.54770519  0.41239799  0.50924620    -0.87900
O5          O  0.55493936  0.37404778  0.47527527    -0.75200
C6          C  0.55491139  0.48452976  0.38666154     0.92900
O7          O  0.62755905  0.44673944  0.44838500    -0.75000
O8          O  0.56769974  0.47835000  0.37215904    -0.82500
Mg9        Mg  0.61325954  0.41142888  0.47403071     1.58000
C10         C  0.51622606  0.45174823  0.51420504     0.92900
O11         O  0.60193651  0.37657889  0.49871522    -0.80800
H12         H  0.51651562  0.38411957  0.50692884    -0.06100
C13         C  0.58465093  0.47746267  0.46778944     0.87800
O14         O  0.55209215  0.40160461  0.39090014    -0.75300
O15         O  0.59508685  0.41989283  0.50795359    -0.88100
O16         O  0.52906790  0.44646119  0.53065009    -0.80900
C17         C  0.56555043  0.42240656  0.59391892     0.93000
C18         C  0.59060849  0.36466797  0.52367884     0.92800
Mg19       Mg  0.53636502  0.44350837  0.44569969     1.58000
O20         O  0.54638592  0.47697687  0.41534130    -0.80800
O21         O  0.52145141  0.40913046  0.47403282    -0.75000
O22         O  0.56883590  0.40802337  0.57769416    -0.80900
O23         O  0.63445316  0.40422357  0.43988128    -0.82600
O24         O  0.57942821  0.44246830  0.33966694    -0.80900
C25         C  0.52809500  0.40127658  0.49755063     0.87300
O26         O  0.55374172  0.43264069  0.41130170    -0.88000
O27         O  0.56727450  0.45896361  0.47514883    -0.88200
O28         O  0.59404560  0.48081379  0.43943907    -0.75200
Mg29       Mg  0.56281818  0.39250694  0.52536573     1.58000
O30         O  0.56040582  0.43624921  0.57988544    -0.82600
H31         H  0.55798033  0.36525864  0.42837543    -0.06300
O32         O  0.60286402  0.44236475  0.40940888    -0.87900
H33         H  0.63239343  0.47204574  0.41611546    -0.06100
H34         H  0.52438140  0.40598624  0.39456227    -0.06300
C35         C  0.62141855  0.45433360  0.42386942     0.87200
C36         C  0.56555396  0.37790362  0.44786141     0.87800
C37         C  0.54264446  0.41329520  0.39866565     0.87900
H38         H  0.59228164  0.49096926  0.48610210    -0.06300
O39         O  0.59942694  0.45223528  0.52717172    -0.75300
Mg40       Mg  0.58560200  0.45974734  0.39117978     1.58000
H41         H  0.62507364  0.44471584  0.52597625    -0.06300
C42         C  0.63827925  0.40729281  0.40913690     0.92900
O43         O  0.59284574  0.41814532  0.33838517    -0.82500
C44         C  0.58508306  0.42964984  0.32383533     0.92900
O45         O  0.57806109  0.36995721  0.54092607    -0.82500
Mg46       Mg  0.56343015  0.44757652  0.52601560     1.58200
O47         O  0.62537485  0.41075573  0.38959122    -0.80900
O48         O  0.51765934  0.45417449  0.48283569    -0.82600
O49         O  0.58062255  0.39363879  0.94065079    -0.88100
C50         C  0.60564079  0.43681880  0.01895191     0.87900
Mg51       Mg  0.58593673  0.40577058  0.89067650     1.58100
O52         O  0.54600067  0.41031327  0.00984591    -0.87900
O53         O  0.55240486  0.37204594  0.97489354    -0.75200
C54         C  0.55203214  0.48289639  0.88944922     0.92900
O55         O  0.62541416  0.44370778  0.94616549    -0.75000
O56         O  0.56517977  0.47715063  0.87506181    -0.82500
Mg57       Mg  0.61029332  0.40813051  0.97156386     1.58000
C58         C  0.51393204  0.44855072  0.01703287     0.92900
O59         O  0.59819252  0.37285838  0.99577567    -0.80800
H60         H  0.51498292  0.38180030  0.00772083    -0.06100
C61         C  0.58231020  0.47532449  0.96922009     0.87800
O62         O  0.54897212  0.40013092  0.89024702    -0.75300
O63         O  0.59330971  0.41764418  0.00645998    -0.88100
O64         O  0.52735356  0.44366666  0.03272371    -0.80900
C65         C  0.56507833  0.42057174  0.09423757     0.93000
C66         C  0.58781111  0.36193180  0.02186818     0.92800
Mg67       Mg  0.53367340  0.44130305  0.94749934     1.58000
O68         O  0.54315158  0.47490850  0.91782100    -0.80800
O69         O  0.51935004  0.40680601  0.97521773    -0.75000
O70         O  0.56844003  0.40624083  0.07801067    -0.80900
O71         O  0.63002129  0.39973151  0.93639783    -0.82600
O72         O  0.57612613  0.44176856  0.84076567    -0.80900
C73         C  0.52632123  0.39904197  0.99842577     0.87300
O74         O  0.55097446  0.43092618  0.91227579    -0.88000
O75         O  0.56485472  0.45683230  0.97629787    -0.88200
O76         O  0.59184575  0.47879924  0.94100385    -0.75200
Mg77       Mg  0.56133892  0.39063304  0.02522617     1.58000
O78         O  0.55963029  0.43415192  0.08014492    -0.82600
H79         H  0.55398316  0.36308592  0.92746974    -0.06300
O80         O  0.59991130  0.44025893  0.90924324    -0.87900
H81         H  0.63017527  0.46938702  0.91463290    -0.06100
H82         H  0.52146139  0.40474626  0.89503752    -0.06300
C83         C  0.61896171  0.45176964  0.92260342     0.87200
C84         C  0.56223738  0.37572621  0.94681156     0.87800
C85         C  0.53971371  0.41183273  0.89894527     0.87900
H86         H  0.58999986  0.48864211  0.98779477    -0.06300
O87         O  0.59792699  0.45009295  0.02585325    -0.75300
Mg88       Mg  0.58288362  0.45820131  0.89253040     1.58000
H89         H  0.62372772  0.44285957  0.02269113    -0.06300
C90         C  0.63482451  0.40463654  0.90612303     0.92900
O91         O  0.58943934  0.41743333  0.83723383    -0.82500
C92         C  0.58162478  0.42927515  0.82385368     0.92900
O93         O  0.57664732  0.36836612  0.04010454    -0.82500
Mg94       Mg  0.56182184  0.44534007  0.02665621     1.58200
O95         O  0.62255777  0.40941634  0.88716552    -0.80900
O96         O  0.51494685  0.45119825  0.98570569    -0.82600
O97         O  0.39587654  0.58208617  0.22227426    -0.88100
C98         C  0.43951375  0.60889014  0.14451671     0.87900
Mg99       Mg  0.40725804  0.58650325  0.27224214     1.58100
O100        O  0.41391901  0.54915149  0.15222838    -0.87900
O101        O  0.37488891  0.55403793  0.18774173    -0.75200
C102        C  0.48544028  0.55382572  0.27293836     0.92900
O103        O  0.44573622  0.62734372  0.21789440    -0.75000
O104        O  0.47931555  0.56653668  0.28781123    -0.82500
Mg105      Mg  0.41048015  0.61242034  0.19219397     1.58000
C106        C  0.45269439  0.51791819  0.14400183     0.92900
O107        O  0.37559308  0.60035645  0.16782089    -0.80800
H108        H  0.38578519  0.51779242  0.15330888    -0.06100
C109        C  0.47836888  0.58549927  0.19388012     0.87800
O110        O  0.40224439  0.54972801  0.27168468    -0.75300
O111        O  0.42033785  0.59608660  0.15681812    -0.88100
O112        O  0.44794779  0.53153661  0.12845995    -0.80900
C113        C  0.42412703  0.56939427  0.06845477     0.93000
C114        C  0.36439401  0.58979257  0.14212117     0.92800
Mg115      Mg  0.44461528  0.53633313  0.21415964     1.58000
O116        O  0.47787488  0.54554024  0.24423918    -0.80800
O117        O  0.41046630  0.52201489  0.18606353    -0.75000
O118        O  0.40944814  0.57198714  0.08507727    -0.80900
O119        O  0.40166760  0.63166120  0.22788878    -0.82600
O120        O  0.44322384  0.57683584  0.32228949    -0.80900
C121        C  0.40281727  0.52919900  0.16300367     0.87300
O122        O  0.43351528  0.55264797  0.24998334    -0.88000
O123        O  0.46010244  0.56806447  0.18616088    -0.88200
O124        O  0.48138700  0.59436777  0.22247299    -0.75200
Mg125      Mg  0.39372672  0.56402749  0.13763651     1.58000
O126        O  0.43819590  0.56444589  0.08205404    -0.82600
H127        H  0.36550026  0.55497056  0.23514609    -0.06300
O128        O  0.44212711  0.60138014  0.25438148    -0.87900
H129        H  0.47112028  0.63187775  0.24957544    -0.06100
H130        H  0.40744695  0.52259169  0.26632522    -0.06300
C131        C  0.45362479  0.62065732  0.24137937     0.87200
C132        C  0.37819823  0.56359971  0.21588893     0.87800
C133        C  0.41431258  0.54089996  0.26289971     0.87900
H134        H  0.49190011  0.59371692  0.17561080    -0.06300
O135        O  0.45316208  0.60166464  0.13746754    -0.75300
Mg136      Mg  0.46023776  0.58436928  0.27070947     1.58000
H137        H  0.44524462  0.62699103  0.14118197    -0.06300
C138        C  0.40536493  0.63531755  0.25854834     0.92900
O139        O  0.41806851  0.58915194  0.32553237    -0.82500
C140        C  0.43016430  0.58171233  0.33899767     0.92900
O141        O  0.37073772  0.57869968  0.12358854    -0.82500
Mg142      Mg  0.44907058  0.56579756  0.13560273     1.58200
O143        O  0.40983216  0.62259371  0.27709236    -0.80900
O144        O  0.45518028  0.51864241  0.17532940    -0.82600
O145        O  0.39669542  0.58364123  0.72069808    -0.88100
C146        C  0.43970398  0.60704941  0.64203285     0.87900
Mg147      Mg  0.40832153  0.58851990  0.77058243     1.58100
O148        O  0.41198980  0.54728732  0.65298901    -0.87900
O149        O  0.37436109  0.55517791  0.68761860    -0.75200
C150        C  0.48292061  0.55166195  0.77397083     0.92900
O151        O  0.44752044  0.62719186  0.71436279    -0.75000
O152        O  0.47742306  0.56501995  0.78828953    -0.82500
Mg153      Mg  0.41225116  0.61330733  0.68916388     1.58000
C154        C  0.44972292  0.51442733  0.64586384     0.92900
O155        O  0.37751829  0.60236947  0.66475803    -0.80800
H156        H  0.38325304  0.51639847  0.65478464    -0.06100
C157        C  0.47698867  0.58240190  0.69333814     0.87800
O158        O  0.40156251  0.55108557  0.77165300    -0.75300
O159        O  0.42053433  0.59515268  0.65484614    -0.88100
O160        O  0.44459625  0.52754970  0.62980432    -0.80900
C161        C  0.42225722  0.56571029  0.56859294     0.93000
C162        C  0.36602046  0.59156891  0.63937132     0.92800
Mg163      Mg  0.44206560  0.53420213  0.71533266     1.58000
O164        O  0.47510815  0.54304058  0.74551013    -0.80800
O165        O  0.40783726  0.52021353  0.68745775    -0.75000
O166        O  0.40801345  0.56907098  0.58497533    -0.80900
O167        O  0.40520602  0.63441432  0.72392724    -0.82600
O168        O  0.44294833  0.57775995  0.82154266    -0.80900
C169        C  0.40042101  0.52751854  0.66424663     0.87300
O170        O  0.43198327  0.55199516  0.75023411    -0.88000
O171        O  0.45823249  0.56536741  0.68626585    -0.88200
O172        O  0.48060257  0.59191091  0.72153566    -0.75200
Mg173      Mg  0.39285006  0.56313683  0.63736677     1.58000
O174        O  0.43602045  0.56045522  0.58239028    -0.82600
H175        H  0.36573637  0.55799714  0.73474479    -0.06300
O176        O  0.44286304  0.60165076  0.75231135    -0.87900
H177        H  0.47268952  0.63117691  0.74605582    -0.06100
H178        H  0.40511836  0.52286084  0.76752072    -0.06300
C179        C  0.45499516  0.62046102  0.73832476     0.87200
C180        C  0.37838589  0.56556643  0.71517970     0.87800
C181        C  0.41275464  0.54120843  0.76338149     0.87900
H182        H  0.49045580  0.58969242  0.67485229    -0.06300
O183        O  0.45267558  0.59890338  0.63574541    -0.75300
Mg184      Mg  0.45965460  0.58367897  0.76985779     1.58000
H185        H  0.44606378  0.62518583  0.63766559    -0.06300
C186        C  0.40900637  0.63832137  0.75456574     0.92900
O187        O  0.41922105  0.59179644  0.82419390    -0.82500
C188        C  0.43061403  0.58368288  0.83805219     0.92900
O189        O  0.37136824  0.57920591  0.62187938    -0.82500
Mg190      Mg  0.44698963  0.56244226  0.63578508     1.58200
O191        O  0.41264210  0.62525360  0.77358329    -0.80900
O192        O  0.45213591  0.51552611  0.67724350    -0.82600
O193        O  0.18726279  0.60272988  0.05243769    -0.88100
C194        C  0.16851577  0.56233391  0.97080150     0.87900
Mg195      Mg  0.18105457  0.59001402  0.10202858     1.58100
O196        O  0.13374224  0.58618184  0.98648032    -0.87900
O197        O  0.17873248  0.62456239  0.02198170    -0.75200
C198        C  0.06993353  0.51044903  0.10574157     0.92900
O199        O  0.18115088  0.55283372  0.04298502    -0.75000
O200        O  0.08904105  0.51653062  0.11987730    -0.82500
Mg201      Mg  0.20165133  0.58875064  0.01881398     1.58000
C202        C  0.06304587  0.54509937  0.98069707     0.92900
O203        O  0.22459616  0.62392275  0.99430015    -0.80800
H204        H  0.12973300  0.61362948  0.99045236    -0.06100
C205        C  0.10743044  0.52030236  0.02393417     0.87800
O206        O  0.14910011  0.59452978  0.10406277    -0.75300
O207        O  0.17492409  0.58082124  0.98508551    -0.88100
O208        O  0.08138505  0.55115063  0.96426765    -0.80900
C209        C  0.14178219  0.57984850  0.90056263     0.93000
C210        C  0.22439048  0.63712128  0.97175662     0.92800
Mg211      Mg  0.09161079  0.55252588  0.04871799     1.58000
O212        O  0.06880153  0.51826795  0.07740242    -0.80800
O213        O  0.11014659  0.58761675  0.02237980    -0.75000
O214        O  0.15938328  0.59460812  0.91677531    -0.80900
O215        O  0.23013225  0.59560190  0.05312003    -0.82600
O216        O  0.13605460  0.55300084  0.15284251    -0.80900
C217        C  0.12464597  0.59641536  0.99896745     0.87300
O218        O  0.12008881  0.56340154  0.08270087    -0.88000
O219        O  0.10789306  0.53861475  0.01785675    -0.88200
O220        O  0.11371261  0.51654249  0.05182988    -0.75200
Mg221      Mg  0.16854080  0.60793627  0.97074101     1.58000
O222        O  0.12340951  0.56459978  0.91478511    -0.82600
H223        H  0.19111537  0.63255164  0.06873358    -0.06300
O224        O  0.16054004  0.55539456  0.08320481    -0.87900
H225        H  0.16122956  0.52646764  0.07425390    -0.06100
H226        H  0.11657316  0.58914078  0.10089430    -0.06300
C227        C  0.16753725  0.54428053  0.06755326     0.87200
C228        C  0.18628623  0.62051851  0.04846982     0.87800
C229        C  0.12793150  0.58243321  0.09617540     0.87900
H230        H  0.10196502  0.50734929  0.00484795    -0.06300
O231        O  0.14744231  0.54839116  0.96493329    -0.75300
Mg232      Mg  0.12568941  0.53654694  0.10103028     1.58000
H233        H  0.18107925  0.55734366  0.96484090    -0.06300
C234        C  0.23108037  0.59178270  0.08365747     0.92900
O235        O  0.17371775  0.57820112  0.15556193    -0.82500
C236        C  0.15416151  0.56612804  0.16935327     0.92900
O237        O  0.20603657  0.63279510  0.95650512    -0.82500
Mg238      Mg  0.11530866  0.55149971  0.96773199     1.58200
O239        O  0.21478705  0.58780076  0.10375086    -0.80900
O240        O  0.06198232  0.54200120  0.01192156    -0.82600
O241        O  0.18811100  0.60378410  0.55329812    -0.88100
C242        C  0.17010531  0.55997534  0.47537057     0.87900
Mg243      Mg  0.18200196  0.59339609  0.60380504     1.58100
O244        O  0.13676798  0.58614216  0.48259146    -0.87900
O245        O  0.18135261  0.62473948  0.51809817    -0.75200
C246        C  0.07040782  0.51601486  0.60546308     0.92900
O247        O  0.18208011  0.55343948  0.54945888    -0.75000
O248        O  0.08918599  0.52215006  0.62057914    -0.82500
Mg249      Mg  0.20271598  0.58852322  0.52308819     1.58000
C250        C  0.06609088  0.54642690  0.47568009     0.92900
O251        O  0.22551528  0.62343253  0.49908456    -0.80800
H252        H  0.13405025  0.61445255  0.48280454    -0.06100
C253        C  0.10866340  0.52211958  0.52656856     0.87800
O254        O  0.15051368  0.59873513  0.60305264    -0.75300
O255        O  0.17648521  0.57900137  0.48791152    -0.88100
O256        O  0.08433782  0.55121080  0.45982393    -0.80900
C257        C  0.14593137  0.57559464  0.39915525     0.93000
C258        C  0.22678375  0.63502547  0.47349820     0.92800
Mg259      Mg  0.09391329  0.55634370  0.54566902     1.58000
O260        O  0.06985122  0.52352961  0.57659194    -0.80800
O261        O  0.11376942  0.59024685  0.51658357    -0.75000
O262        O  0.16350894  0.59019891  0.41553476    -0.80900
O263        O  0.23084585  0.59687581  0.55800119    -0.82600
O264        O  0.13627619  0.55874738  0.65485810    -0.80900
C265        C  0.12829716  0.59750710  0.49308860     0.87300
O266        O  0.12179183  0.56765163  0.58129193    -0.88000
O267        O  0.10951509  0.54026315  0.51804962    -0.88200
O268        O  0.11456896  0.51944744  0.55541396    -0.75200
Mg269      Mg  0.17197544  0.60595186  0.46799696     1.58000
O270        O  0.12690159  0.56147436  0.41305230    -0.82600
H271        H  0.19185193  0.63435751  0.56537538    -0.06300
O272        O  0.16133273  0.55822081  0.58722482    -0.87900
H273        H  0.16171485  0.52874756  0.58267707    -0.06100
H274        H  0.11835700  0.59395915  0.59719971    -0.06300
C275        C  0.16826690  0.54621367  0.57395285     0.87200
C276        C  0.18755120  0.62150207  0.54640931     0.87800
C277        C  0.12956596  0.58689940  0.59401588     0.87900
H278        H  0.10322510  0.50834489  0.50879042    -0.06300
O279        O  0.14917886  0.54633463  0.46825026    -0.75300
Mg280      Mg  0.12617378  0.54087804  0.60345045     1.58000
H281        H  0.18248247  0.55437350  0.47188572    -0.06300
C282        C  0.23200902  0.59428404  0.58876744     0.92900
O283        O  0.17407915  0.58353603  0.65771337    -0.82500
C284        C  0.15436835  0.57210180  0.67133619     0.92900
O285        O  0.20993726  0.62861657  0.45365913    -0.82500
Mg286      Mg  0.11771887  0.55071500  0.46691372     1.58200
O287        O  0.21570492  0.59083104  0.60854646    -0.80900
O288        O  0.06502119  0.54515205  0.50718917    -0.82600
O289        O  0.81240071  0.39467097  0.30353305    -0.88100
C290        C  0.82966983  0.43844774  0.22572629     0.87900
Mg291      Mg  0.81895060  0.40543081  0.35365622     1.58100
O292        O  0.86355714  0.41288986  0.23340629    -0.87900
O293        O  0.81895857  0.37353679  0.26881675    -0.75200
C294        C  0.92997350  0.48294180  0.35563237     0.92900
O295        O  0.81750462  0.44460819  0.29953475    -0.75000
O296        O  0.91104651  0.47690265  0.37030994    -0.82500
Mg297      Mg  0.79699489  0.40941310  0.27365884     1.58000
C298        C  0.93456215  0.45293358  0.22593903     0.92900
O299        O  0.77444413  0.37460114  0.24972971    -0.80800
H300        H  0.86677296  0.38486640  0.23377234    -0.06100
C301        C  0.89191107  0.47724589  0.27627801     0.87800
O302        O  0.85044453  0.40019296  0.35294144    -0.75300
O303        O  0.82312769  0.41922872  0.23799469    -0.88100
O304        O  0.91630217  0.44829340  0.21018190    -0.80900
C305        C  0.85439927  0.42320532  0.14980586     0.93000
C306        C  0.77311831  0.36279865  0.22448050     0.92800
Mg307      Mg  0.90685456  0.44314763  0.29579452     1.58000
O308        O  0.93079542  0.47580068  0.32671324    -0.80800
O309        O  0.88714071  0.40930911  0.26693293    -0.75000
O310        O  0.83679193  0.40828021  0.16598489    -0.80900
O311        O  0.76880165  0.40038250  0.30942588    -0.82600
O312        O  0.86439802  0.44059576  0.40422418    -0.80900
C313        C  0.87236636  0.40178569  0.24383607     0.87300
O314        O  0.87902556  0.43161694  0.33131851    -0.88000
O315        O  0.89099308  0.45905444  0.26814810    -0.88200
O316        O  0.88595125  0.47994673  0.30499413    -0.75200
Mg317      Mg  0.82824107  0.39248118  0.21867739     1.58000
O318        O  0.87319690  0.43755061  0.16388968    -0.82600
H319        H  0.80843597  0.36404596  0.31622417    -0.06300
O320        O  0.83926464  0.44049017  0.33632649    -0.87900
H321        H  0.83826978  0.46966907  0.33176093    -0.06100
H322        H  0.88278036  0.40543206  0.34721764    -0.06300
C323        C  0.83183459  0.45220186  0.32332766     0.87200
C324        C  0.81280094  0.37686092  0.29703034     0.87800
C325        C  0.87141344  0.41231628  0.34403511     0.87900
H326        H  0.89742331  0.49099735  0.25828620    -0.06300
O327        O  0.85068225  0.45223069  0.21896402    -0.75300
Mg328      Mg  0.87429684  0.45822353  0.35286389     1.58000
H329        H  0.81733197  0.44410776  0.22223080    -0.06300
C330        C  0.76880059  0.40403588  0.34008494     0.92900
O331        O  0.82669264  0.41562400  0.40709974    -0.82500
C332        C  0.84624083  0.42747920  0.42076108     0.92900
O333        O  0.79002141  0.36905697  0.20465269    -0.82500
Mg334      Mg  0.88251550  0.44838466  0.21737529     1.58200
O335        O  0.78586061  0.40832703  0.35865303    -0.80900
O336        O  0.93574605  0.45445003  0.25739329    -0.82600
O337        O  0.81153806  0.39668426  0.80116703    -0.88100
C338        C  0.83266603  0.44103122  0.72355960     0.87900
Mg339      Mg  0.81719353  0.40743053  0.85136482     1.58100
O340        O  0.86568819  0.41476156  0.73475393    -0.87900
O341        O  0.81996426  0.37588280  0.76844697    -0.75200
C342        C  0.92853703  0.48381279  0.85890030     0.92900
O343        O  0.81856122  0.44745147  0.79590420    -0.75000
O344        O  0.90927060  0.47782193  0.87241073    -0.82500
Mg345      Mg  0.79813880  0.41262192  0.76923236     1.58000
C346        C  0.93664180  0.45381176  0.73037862     0.92900
O347        O  0.77536330  0.37843821  0.74321252    -0.80800
H348        H  0.86856025  0.38653471  0.73507196    -0.06100
C349        C  0.89336828  0.47871424  0.77710189     0.87800
O350        O  0.84832259  0.40148683  0.85277672    -0.75300
O351        O  0.82546077  0.42175268  0.73604301    -0.88100
O352        O  0.91881892  0.44940893  0.71371502    -0.80900
C353        C  0.85843891  0.42542871  0.65046399     0.93000
C354        C  0.77528137  0.36624709  0.71916266     0.92800
Mg355      Mg  0.90711469  0.44402341  0.79875770     1.58000
O356        O  0.93014545  0.47651366  0.83046091    -0.80800
O357        O  0.88814808  0.41036135  0.76943540    -0.75000
O358        O  0.84065229  0.41064388  0.66637831    -0.80900
O359        O  0.76908921  0.40467645  0.80293111    -0.82600
O360        O  0.86170078  0.44178694  0.90389859    -0.80900
C361        C  0.87404091  0.40332764  0.74551910     0.87300
O362        O  0.87809366  0.43264195  0.83246359    -0.88000
O363        O  0.89254337  0.46048734  0.76946892    -0.88200
O364        O  0.88646940  0.48132929  0.80515652    -0.75200
Mg365      Mg  0.83088835  0.39475845  0.71854261     1.58000
O366        O  0.87723690  0.43952910  0.66475647    -0.82600
H367        H  0.80717812  0.36607431  0.81483425    -0.06300
O368        O  0.83869413  0.44236423  0.83432545    -0.87900
H369        H  0.83863896  0.47199097  0.82919770    -0.06100
H370        H  0.88041561  0.40576957  0.84911783    -0.06300
C371        C  0.83209393  0.45453989  0.82061172     0.87200
C372        C  0.81231893  0.37895745  0.79555053     0.87800
C373        C  0.86958009  0.41317457  0.84501729     0.87900
H374        H  0.89957938  0.49256673  0.75916198    -0.06300
O375        O  0.85389514  0.45453607  0.71786857    -0.75300
Mg376      Mg  0.87317535  0.45951581  0.85280093     1.58000
H377        H  0.82068239  0.44700585  0.71896275    -0.06300
C378        C  0.76826366  0.40806038  0.83357923     0.92900
O379        O  0.82386028  0.41730035  0.90546551    -0.82500
C380        C  0.84322922  0.42874121  0.91984507     0.92900
O381        O  0.79343748  0.37144323  0.70269236    -0.82500
Mg382      Mg  0.88532786  0.45009922  0.71857198     1.58200
O383        O  0.78441513  0.41123676  0.85340792    -0.80900
O384        O  0.93714877  0.45516950  0.76191316    -0.82600
O385        O  0.60307747  0.18623545  0.11543123    -0.88100
C386        C  0.55951845  0.16658122  0.19409251     0.87900
Mg387      Mg  0.59219477  0.17983489  0.06516845     1.58100
O388        O  0.58692384  0.13447955  0.18522569    -0.87900
O389        O  0.62470475  0.17997091  0.14986409    -0.75200
C390        C  0.51586330  0.06803079  0.06404736     0.92900
O391        O  0.55237760  0.17928304  0.12065212    -0.75000
O392        O  0.52147354  0.08691222  0.04940639    -0.82500
Mg393      Mg  0.58746639  0.20033383  0.14620197     1.58000
C394        C  0.54932881  0.06345463  0.19120043     0.92900
O395        O  0.62225141  0.22354267  0.17002937    -0.80800
H396        H  0.61568043  0.13266655  0.18341588    -0.06100
C397        C  0.52252224  0.10525160  0.14360908     0.87800
O398        O  0.59825217  0.14883096  0.06524019    -0.75300
O399        O  0.57863727  0.17380165  0.18125177    -0.88100
O400        O  0.55355264  0.08128760  0.20774105    -0.80900
C401        C  0.57601255  0.14270954  0.26912437     0.93000
C402        C  0.63418216  0.22493508  0.19522500     0.92800
Mg403      Mg  0.55723444  0.09166084  0.12210498     1.58000
O404        O  0.52418538  0.06728702  0.09214105    -0.80800
O405        O  0.59131375  0.11212568  0.15027545    -0.75000
O406        O  0.59025610  0.16055441  0.25269088    -0.80900
O407        O  0.59499796  0.22863211  0.11082440    -0.82600
O408        O  0.55714642  0.13400670  0.01498422    -0.80900
C409        C  0.59855042  0.12654551  0.17383541     0.87300
O410        O  0.56746134  0.11962156  0.08709279    -0.88000
O411        O  0.54087749  0.10630821  0.15107887    -0.88200
O412        O  0.51938387  0.11150195  0.11527859    -0.75200
Mg413      Mg  0.60608810  0.16977987  0.20020543     1.58000
O414        O  0.56257784  0.12343490  0.25537310    -0.82600
H415        H  0.63389659  0.19098376  0.10254399    -0.06300
O416        O  0.55737219  0.15869708  0.08296320    -0.87900
H417        H  0.52772020  0.15859365  0.08792756    -0.06100
H418        H  0.59388006  0.11672288  0.07031080    -0.06300
C419        C  0.54522809  0.16540876  0.09635298     0.87200
C420        C  0.62109432  0.18619630  0.12178651     0.87800
C421        C  0.58663703  0.12774054  0.07396489     0.87900
H422        H  0.50900269  0.09942255  0.16195288    -0.06300
O423        O  0.54651833  0.14542677  0.20117487    -0.75300
Mg424      Mg  0.54015142  0.12367701  0.06667464     1.58000
H425        H  0.55328315  0.17842652  0.19799609    -0.06300
C426        C  0.59200446  0.22930836  0.08000715     0.92900
O427        O  0.58174319  0.17185925  0.01147575    -0.82500
C428        C  0.57008261  0.15213087  0.99812680     0.92900
O429        O  0.62829076  0.20793513  0.21482488    -0.82500
Mg430      Mg  0.55176998  0.11436313  0.20176936     1.58200
O431        O  0.58877996  0.21288686  0.06075224    -0.80900
O432        O  0.54748771  0.06269486  0.15977427    -0.82600
O433        O  0.60666420  0.18860258  0.61601094    -0.88100
C434        C  0.56380861  0.16860556  0.69512684     0.87900
Mg435      Mg  0.59502276  0.18264533  0.56607298     1.58100
O436        O  0.58971013  0.13527453  0.68383952    -0.87900
O437        O  0.62795141  0.18069555  0.64872493    -0.75200
C438        C  0.51842872  0.07043586  0.56198540     0.92900
O439        O  0.55630861  0.18195029  0.62279517    -0.75000
O440        O  0.52406617  0.08941233  0.54748636    -0.82500
Mg441      Mg  0.59169433  0.20270502  0.64808596     1.58000
C442        C  0.55064689  0.06419068  0.68892381     0.92900
O443        O  0.62669025  0.22563060  0.67241935    -0.80800
H444        H  0.61803048  0.13269797  0.68186537    -0.06100
C445        C  0.52505943  0.10701426  0.64297581     0.87800
O446        O  0.60075813  0.15136915  0.56459242    -0.75300
O447        O  0.58285963  0.17568102  0.68213265    -0.88100
O448        O  0.55522266  0.08202455  0.70572968    -0.80900
C449        C  0.58000617  0.14325228  0.76852725     0.93000
C450        C  0.63880399  0.22580251  0.69670059     0.92800
Mg451      Mg  0.55941566  0.09335038  0.62040969     1.58000
O452        O  0.52633376  0.06966692  0.59039262    -0.80800
O453        O  0.59355455  0.11286600  0.64841994    -0.75000
O454        O  0.59459289  0.16093124  0.75208504    -0.80900
O455        O  0.59917259  0.23151247  0.61365545    -0.82600
O456        O  0.55962184  0.13753285  0.51488637    -0.80900
C457        C  0.60099407  0.12702788  0.67225727     0.87300
O458        O  0.56998302  0.12184067  0.58604176    -0.88000
O459        O  0.54351175  0.10819635  0.65012870    -0.88200
O460        O  0.52177718  0.11334078  0.61480203    -0.75200
Mg461      Mg  0.60986801  0.17027365  0.69931494     1.58000
O462        O  0.56588405  0.12425048  0.75467190    -0.82600
H463        H  0.63698058  0.19267332  0.60177577    -0.06300
O464        O  0.56024949  0.16121990  0.58416346    -0.87900
H465        H  0.53086791  0.16140479  0.59091477    -0.06100
H466        H  0.59635230  0.11917224  0.56842930    -0.06300
C467        C  0.54851178  0.16803192  0.59854639     0.87200
C468        C  0.62442166  0.18784581  0.62138368     0.87800
C469        C  0.58914227  0.13014882  0.57276934     0.87900
H470        H  0.51156204  0.10092298  0.66139057    -0.06300
O471        O  0.55040589  0.14739497  0.70141705    -0.75300
Mg472      Mg  0.54269381  0.12624984  0.56638524     1.58000
H473        H  0.55794169  0.18067420  0.69973705    -0.06300
C474        C  0.59536322  0.23227761  0.58310727     0.92900
O475        O  0.58402030  0.17548248  0.51259433    -0.82500
C476        C  0.57230193  0.15599968  0.49859929     0.92900
O477        O  0.63328801  0.20792937  0.71420464    -0.82500
Mg478      Mg  0.55463916  0.11574178  0.70086702     1.58200
O479        O  0.59173178  0.21592728  0.56340382    -0.80900
O480        O  0.54908801  0.06375897  0.65745694    -0.82600
O481        O  0.39609924  0.81139780  0.36632511    -0.88100
C482        C  0.44057360  0.82974661  0.44352450     0.87900
Mg483      Mg  0.40646014  0.81753880  0.31587538     1.58100
O484        O  0.41490108  0.86363106  0.43582993    -0.87900
O485        O  0.37562723  0.81869346  0.40139820    -0.75200
C486        C  0.48502779  0.92863780  0.31275784     0.92900
O487        O  0.44601975  0.81640403  0.36952394    -0.75000
O488        O  0.47855818  0.90978371  0.29768237    -0.82500
Mg489      Mg  0.41116131  0.79632320  0.39642125     1.58000
C490        C  0.45490200  0.93479285  0.44105707     0.92900
O491        O  0.37654524  0.77414768  0.42149012    -0.80800
H492        H  0.38681964  0.86667232  0.43570489    -0.06100
C493        C  0.47849235  0.89093347  0.39202245     0.87800
O494        O  0.40149535  0.84925676  0.31609224    -0.75300
O495        O  0.42141577  0.82313463  0.43126051    -0.88100
O496        O  0.45031776  0.91681374  0.45777105    -0.80900
C497        C  0.42555917  0.85473056  0.51956315     0.93000
C498        C  0.36530672  0.77332472  0.44719836     0.92800
Mg499      Mg  0.44456912  0.90597506  0.37218459     1.58000
O500        O  0.47736819  0.92937981  0.34134123    -0.80800
O501        O  0.41083068  0.88662454  0.40153285    -0.75000
O502        O  0.41094772  0.83720106  0.50314539    -0.80900
O503        O  0.40188902  0.76751945  0.36131100    -0.82600
O504        O  0.44142563  0.86286653  0.26429754    -0.80900
C505        C  0.40363097  0.87221616  0.42526178     0.87300
O506        O  0.43291135  0.87783656  0.33731102    -0.88000
O507        O  0.46056832  0.89048418  0.40040883    -0.88200
O508        O  0.48088977  0.88460444  0.36339291    -0.75200
Mg509      Mg  0.39490458  0.82839209  0.45109180     1.58000
O510        O  0.43975920  0.87380325  0.50570120    -0.82600
H511        H  0.36556149  0.80773383  0.35440479    -0.06300
O512        O  0.44154140  0.83786280  0.33247537    -0.87900
H513        H  0.47063316  0.83674191  0.33623370    -0.06100
H514        H  0.40688940  0.88172530  0.32134177    -0.06300
C515        C  0.45332644  0.83046517  0.34525474     0.87200
C516        C  0.37853668  0.81214473  0.37323268     0.87800
C517        C  0.41366862  0.87027271  0.32470504     0.87900
H518        H  0.49228878  0.89634595  0.40976497    -0.06300
O519        O  0.45413653  0.85077076  0.45050564    -0.75300
Mg520      Mg  0.45931197  0.87291570  0.31553225     1.58000
H521        H  0.44631641  0.81746011  0.44705432    -0.06300
C522        C  0.40475659  0.76704768  0.33043552     0.92900
O523        O  0.41651450  0.82505204  0.26207647    -0.82500
C524        C  0.42819582  0.84462410  0.24807620     0.92900
O525        O  0.37202050  0.79050065  0.46647996    -0.82500
Mg526      Mg  0.45031102  0.88272318  0.45156651     1.58200
O527        O  0.40869274  0.78393695  0.31148320    -0.80900
O528        O  0.45598292  0.93527866  0.40954694    -0.82600
O529        O  0.39666729  0.81115850  0.86744969    -0.88100
C530        C  0.43905647  0.83135605  0.94678822     0.87900
Mg531      Mg  0.40850728  0.81744819  0.81757575     1.58100
O532        O  0.41357820  0.86496229  0.93335438    -0.87900
O533        O  0.37534060  0.81970470  0.89880051    -0.75200
C534        C  0.48565059  0.92921827  0.81199487     0.92900
O535        O  0.44694537  0.81784292  0.87458148    -0.75000
O536        O  0.47997201  0.91017265  0.79797648    -0.82500
Mg537      Mg  0.41160181  0.79710961  0.90025665     1.58000
C538        C  0.45225666  0.93565094  0.93833616     0.92900
O539        O  0.37693721  0.77408955  0.92591636    -0.80800
H540        H  0.38543943  0.86786832  0.93155957    -0.06100
C541        C  0.47839685  0.89285219  0.89364777     0.87800
O542        O  0.40288648  0.84874801  0.81563231    -0.75300
O543        O  0.42008750  0.82425795  0.93358287    -0.88100
O544        O  0.44766829  0.91767474  0.95489815    -0.80900
C545        C  0.42203295  0.85717605  0.01855975     0.93000
C546        C  0.36418841  0.77440309  0.94896188     0.92800
Mg547      Mg  0.44431632  0.90689655  0.87021783     1.58000
O548        O  0.47753791  0.93021305  0.84010724    -0.80800
O549        O  0.41001480  0.88769031  0.89799938    -0.75000
O550        O  0.40752747  0.83941547  0.00243740    -0.80900
O551        O  0.40414826  0.76818816  0.86612779    -0.82600
O552        O  0.44409452  0.86250344  0.76619589    -0.80900
C553        C  0.40244500  0.87342694  0.92185978     0.87300
O554        O  0.43377702  0.87828490  0.83652351    -0.88000
O555        O  0.45997883  0.89186498  0.90042024    -0.88200
O556        O  0.48175667  0.88633336  0.86576728    -0.75200
Mg557      Mg  0.39297663  0.83016871  0.94934341     1.58000
O558        O  0.43646987  0.87597514  0.00434267    -0.82600
H559        H  0.36651305  0.80702635  0.85232905    -0.06300
O560        O  0.44317349  0.83867097  0.83566566    -0.87900
H561        H  0.47244794  0.83828293  0.84247876    -0.06100
H562        H  0.40744918  0.88100842  0.81881579    -0.06300
C563        C  0.45481487  0.83175012  0.85015869     0.87200
C564        C  0.37892059  0.81203142  0.87213426     0.87800
C565        C  0.41460415  0.86999185  0.82337337     0.87900
H566        H  0.49177083  0.89889666  0.91218104    -0.06300
O567        O  0.45250693  0.85259208  0.95256443    -0.75300
Mg568      Mg  0.46097843  0.87352708  0.81742061     1.58000
H569        H  0.44483642  0.81926966  0.95197892    -0.06300
C570        C  0.40796839  0.76780800  0.83547579     0.92900
O571        O  0.41932282  0.82471020  0.76352635    -0.82500
C572        C  0.43112425  0.84435246  0.74970807     0.92900
O573        O  0.36883172  0.79279166  0.96426951    -0.82500
Mg574      Mg  0.44837081  0.88426046  0.95090960     1.58200
O575        O  0.41182257  0.78443822  0.81600337    -0.80900
O576        O  0.45440000  0.93659500  0.90690699    -0.82600
C577        C  0.41962642  0.83785598  0.66444021     0.30000
C578        C  0.40885512  0.82626855  0.63513926    -0.36400
C579        C  0.41714946  0.83912420  0.60578537     0.15900
C580        C  0.43475228  0.86184550  0.60525192     0.21800
C581        C  0.44533374  0.87350548  0.63456702    -0.34500
C582        C  0.43710156  0.86063294  0.66388813     0.15900
O583        O  0.41512665  0.82899182  0.69459382    -0.26500
C584        C  0.42989559  0.84635783  0.71358095     0.05600
C585        C  0.44390395  0.86647741  0.69579911    -0.31400
O586        O  0.44010992  0.87038399  0.57498387    -0.23200
C587        C  0.42575191  0.85289711  0.55585081    -0.03200
C588        C  0.41103528  0.83303584  0.57369559    -0.17700
H589        H  0.39520366  0.80838891  0.63517205     0.20300
H590        H  0.45922483  0.89128001  0.63448757     0.18700
H591        H  0.45734669  0.88292903  0.70504323     0.18700
H592        H  0.39786510  0.81648758  0.56433114     0.14500
C593        C  0.41564372  0.84190037  0.10257126     0.30000
C594        C  0.40790088  0.82691999  0.12993641    -0.36400
C595        C  0.41658724  0.83710412  0.16079468     0.15900
C596        C  0.43176429  0.86043400  0.16452955     0.21800
C597        C  0.43946212  0.87541936  0.13717689    -0.34500
C598        C  0.43087588  0.86521852  0.10630375     0.15900
O599        O  0.41021533  0.83600576  0.07135225    -0.26500
C600        C  0.42221106  0.85579318  0.05486299     0.05600
C601        C  0.43534410  0.87454881  0.07535072    -0.31400
O602        O  0.43786310  0.86620641  0.19561156    -0.23200
C603        C  0.42645280  0.84631040  0.21201189    -0.03200
C604        C  0.41293597  0.82762097  0.19160523    -0.17700
H605        H  0.39612601  0.80857603  0.12731293     0.20300
H606        H  0.45150958  0.89370898  0.13974466     0.18700
H607        H  0.44675469  0.89238364  0.06837771     0.18700
H608        H  0.40208659  0.80967093  0.19848966     0.14500
C609        C  0.51642773  0.97356023  0.75442694     0.30000
C610        C  0.52284964  0.98325382  0.72255934    -0.36400
C611        C  0.53288529  0.00734810  0.72049936     0.15900
C612        C  0.53654945  0.02089224  0.74800731     0.21800
C613        C  0.53033369  0.01125028  0.77978707    -0.34500
C614        C  0.52007665  0.98721944  0.78178600     0.15900
O615        O  0.50485732  0.95134097  0.76175405    -0.26500
C616        C  0.50101280  0.95080458  0.79418154     0.05600
C617        C  0.51014660  0.97264574  0.80792697    -0.31400
O618        O  0.54428698  0.04266774  0.74036636    -0.23200
C619        C  0.54562853  0.04325400  0.70751583    -0.03200
C620        C  0.53884204  0.02176355  0.69371945    -0.17700
H621        H  0.51928339  0.97266127  0.70077297     0.20300
H622        H  0.53235071  0.02167294  0.80128183     0.18700
H623        H  0.50855388  0.97708389  0.83312183     0.18700
H624        H  0.53721727  0.01721341  0.66780315     0.14500
C625        C  0.48887405  0.02570865  0.50493057     0.30000
C626        C  0.48303450  0.01590869  0.47319462    -0.36400
C627        C  0.47306769  0.99181752  0.47167929     0.15900
C628        C  0.46896074  0.97832276  0.49953756     0.21800
C629        C  0.47460569  0.98808238  0.53122813    -0.34500
C630        C  0.48476968  0.01214746  0.53270889     0.15900
O631        O  0.50018870  0.04796334  0.51182342    -0.26500
C632        C  0.50343535  0.04867834  0.54442404     0.05600
C633        C  0.49414374  0.02687193  0.55870424    -0.31400
O634        O  0.46119059  0.95647380  0.49237309    -0.23200
C635        C  0.46024941  0.95583503  0.45947719    -0.03200
C636        C  0.46736283  0.97734174  0.44522458    -0.17700
H637        H  0.48689651  0.02642681  0.45113151     0.20300
H638        H  0.47217300  0.97772315  0.55308886     0.18700
H639        H  0.49527806  0.02255901  0.58420363     0.18700
H640        H  0.46921421  0.98183623  0.41921479     0.14500
C641        C  0.56956259  0.13542937  0.85399691     0.30000
C642        C  0.55892015  0.12330830  0.88317126    -0.36400
C643        C  0.56584759  0.13618693  0.91247160     0.15900
C644        C  0.58211017  0.15940187  0.91305635     0.21800
C645        C  0.59285519  0.17148894  0.88391188    -0.34500
C646        C  0.58594490  0.15860559  0.85461654     0.15900
O647        O  0.56538814  0.12691042  0.82378015    -0.26500
C648        C  0.57933888  0.14484346  0.80478664     0.05600
C649        C  0.59256570  0.16500964  0.82266019    -0.31400
O650        O  0.58573772  0.16810081  0.94313388    -0.23200
C651        C  0.57164037  0.15021884  0.96208881    -0.03200
C652        C  0.55887948  0.12989687  0.94434785    -0.17700
H653        H  0.54601762  0.10514981  0.88300618     0.20300
H654        H  0.60559305  0.18969940  0.88404065     0.18700
H655        H  0.60500613  0.18196396  0.81338237     0.18700
H656        H  0.54623573  0.11301010  0.95359584     0.14500
C657        C  0.58220654  0.15865299  0.35266061     0.30000
C658        C  0.59110001  0.17355637  0.37984423    -0.36400
C659        C  0.58233576  0.16361995  0.41092390     0.15900
C660        C  0.56598632  0.14060791  0.41496714     0.21800
C661        C  0.55704844  0.12574028  0.38780439    -0.34500
C662        C  0.56578081  0.13567355  0.35675420     0.15900
O663        O  0.58802019  0.16420707  0.32138495    -0.26500
C664        C  0.57512750  0.14452681  0.30526361     0.05600
C665        C  0.56093504  0.12620613  0.32601880    -0.31400
O666        O  0.56033397  0.13491873  0.44621480    -0.23200
C667        C  0.57316896  0.15454278  0.46243564    -0.03200
C668        C  0.58720036  0.17300219  0.44175703    -0.17700
H669        H  0.60397443  0.19160553  0.37696942     0.20300
H670        H  0.54422162  0.10767538  0.39069195     0.18700
H671        H  0.54887632  0.10849625  0.31940124     0.18700
H672        H  0.59925549  0.19068555  0.44849837     0.14500
C673        C  0.51654453  0.97319390  0.25614592     0.30000
C674        C  0.52262907  0.98295767  0.22435482    -0.36400
C675        C  0.53290717  0.00704130  0.22257655     0.15900
C676        C  0.53717598  0.02058064  0.25026762     0.21800
C677        C  0.53143094  0.01085645  0.28208041    -0.34500
C678        C  0.52083627  0.98676487  0.28380637     0.15900
O679        O  0.50444281  0.95097763  0.26308077    -0.26500
C680        C  0.50084634  0.95028313  0.29555225     0.05600
C681        C  0.51074493  0.97205057  0.30980421    -0.31400
O682        O  0.54462297  0.04233938  0.24275687    -0.23200
C683        C  0.54515238  0.04282773  0.20984354    -0.03200
C684        C  0.53819094  0.02136842  0.19590260    -0.17700
H685        H  0.51843163  0.97240553  0.20240547     0.20300
H686        H  0.53380544  0.02123428  0.30376665     0.18700
H687        H  0.50941786  0.97638218  0.33516367     0.18700
H688        H  0.53582392  0.01673189  0.16999187     0.14500
C689        C  0.48435607  0.02437766  0.00673390     0.30000
C690        C  0.47795558  0.01533056  0.97467780    -0.36400
C691        C  0.46829401  0.99137254  0.97181494     0.15900
C692        C  0.46481005  0.97732974  0.99882760     0.21800
C693        C  0.47092428  0.98632091  0.03088487    -0.34500
C694        C  0.48098245  0.01028733  0.03364562     0.15900
O695        O  0.49599658  0.04643115  0.01444258    -0.26500
C696        C  0.50027008  0.04651194  0.04662447     0.05600
C697        C  0.49124599  0.02448128  0.05996254    -0.31400
O698        O  0.45765137  0.95586527  0.99035751    -0.23200
C699        C  0.45657981  0.95602491  0.95749525    -0.03200
C700        C  0.46289702  0.97766161  0.94448934    -0.17700
H701        H  0.48148594  0.02635748  0.95326139     0.20300
H702        H  0.46918599  0.97552165  0.05191977     0.18700
H703        H  0.49320728  0.01969710  0.08484060     0.18700
H704        H  0.46466926  0.98280339  0.91875240     0.14500
C705        C  0.71947103  0.31853870  0.71835210     0.30000
C706        C  0.69667266  0.30492296  0.72942689    -0.36400
C707        C  0.68458554  0.28234924  0.71720108     0.15900
C708        C  0.69427297  0.27380294  0.69546349     0.21800
C709        C  0.71705580  0.28747330  0.68423592    -0.34500
C710        C  0.72914856  0.31007407  0.69647263     0.15900
O711        O  0.73417426  0.33970312  0.72794516    -0.26500
C712        C  0.75351423  0.34501194  0.71186370     0.05600
C713        C  0.75139793  0.32726069  0.69174297    -0.31400
O714        O  0.67966064  0.25241597  0.68655740    -0.23200
C715        C  0.66048132  0.24714833  0.70305057    -0.03200
C716        C  0.66243867  0.26511218  0.72237045    -0.17700
H717        H  0.68896969  0.31142658  0.74661143     0.20300
H718        H  0.72481349  0.28092221  0.66722998     0.18700
H719        H  0.76461338  0.32667846  0.67720100     0.18700
H720        H  0.64924970  0.26563958  0.73705330     0.14500
C721        C  0.72321845  0.31298349  0.19751697     0.30000
C722        C  0.70701441  0.29750045  0.17492995    -0.36400
C723        C  0.68757068  0.27836691  0.18870736     0.15900
C724        C  0.68440078  0.27433729  0.22235554     0.21800
C725        C  0.70041415  0.29002218  0.24496618    -0.34500
C726        C  0.71963217  0.30940633  0.23119199     0.15900
O727        O  0.74270041  0.33206711  0.19017857    -0.26500
C728        C  0.75143501  0.34097114  0.21960792     0.05600
C729        C  0.73777607  0.32766862  0.24591001    -0.31400
O730        O  0.66524402  0.25490547  0.22963115    -0.23200
C731        C  0.65587966  0.24670668  0.20020433    -0.03200
C732        C  0.66895982  0.26062788  0.17397066    -0.17700
H733        H  0.70935008  0.30020318  0.14847028     0.20300
H734        H  0.69804794  0.28734800  0.27142624     0.18700
H735        H  0.74094813  0.33093943  0.27213917     0.18700
H736        H  0.66542191  0.25777931  0.14774782     0.14500
C737        C  0.84342895  0.41808495  0.56665226     0.30000
C738        C  0.82876284  0.40876262  0.53933403    -0.36400
C739        C  0.83886215  0.41722680  0.50829893     0.15900
C740        C  0.86182148  0.43367477  0.50437242     0.21800
C741        C  0.87648878  0.44300290  0.53170409    -0.34500
C742        C  0.86636772  0.43460307  0.56275892     0.15900
O743        O  0.83761329  0.41270424  0.59792333    -0.26500
C744        C  0.85706017  0.42598562  0.61427784     0.05600
C745        C  0.87552261  0.44000238  0.59369053    -0.31400
O746        O  0.86754140  0.43929515  0.47311129    -0.23200
C747        C  0.84797825  0.42631514  0.45683470    -0.03200
C748        C  0.82956617  0.41221684  0.47745026    -0.17700
H749        H  0.81072729  0.39589801  0.54209635     0.20300
H750        H  0.89448499  0.45598840  0.52895806     0.18700
H751        H  0.89310435  0.45227642  0.60053792     0.18700
H752        H  0.81188596  0.40022725  0.47068534     0.14500
C753        C  0.83981508  0.41594945  0.06555894     0.30000
C754        C  0.82544897  0.40663723  0.03786996    -0.36400
C755        C  0.83543207  0.41631626  0.00713127     0.15900
C756        C  0.85804641  0.43380145  0.00383771     0.21800
C757        C  0.87241868  0.44304875  0.03148202    -0.34500
C758        C  0.86239115  0.43350513  0.06220139     0.15900
O759        O  0.83395503  0.40987939  0.09672463    -0.26500
C760        C  0.85302205  0.42379241  0.11351675     0.05600
C761        C  0.87126248  0.43881282  0.09328668    -0.31400
O762        O  0.86377220  0.44041131  0.97284129    -0.23200
C763        C  0.84455195  0.42707945  0.95601008    -0.03200
C764        C  0.82634621  0.41174215  0.97606730    -0.17700
H765        H  0.80766773  0.39299322  0.04016680     0.20300
H766        H  0.89011950  0.45688527  0.02922610     0.18700
H767        H  0.88849955  0.45184101  0.10049209     0.18700
H768        H  0.80897921  0.39911003  0.96879456     0.14500
C769        C  0.31277784  0.72182227  0.44188257     0.30000
C770        C  0.29417722  0.70359606  0.42541502    -0.36400
C771        C  0.27710602  0.68662199  0.44563465     0.15900
C772        C  0.27852426  0.68736678  0.47971576     0.21800
C773        C  0.29690089  0.70587365  0.49622620    -0.34500
C774        C  0.31379472  0.72308627  0.47597108     0.15900
O775        O  0.33081104  0.73919572  0.42773466    -0.26500
C776        C  0.34340256  0.75200349  0.45296242     0.05600
C777        C  0.33363097  0.74299082  0.48367631    -0.31400
O778        O  0.26112905  0.66920937  0.49370227    -0.23200
C779        C  0.24824025  0.65688960  0.46830656    -0.03200
C780        C  0.25718777  0.66693252  0.43774740    -0.17700
H781        H  0.29317978  0.70265848  0.39869541     0.20300
H782        H  0.29800334  0.70670216  0.52294290     0.18700
H783        H  0.34038983  0.74980639  0.50794047     0.18700
H784        H  0.25028416  0.66044617  0.41341779     0.14500
C785        C  0.97914062  0.46699229  0.67040680     0.30000
C786        C  0.98844627  0.47264208  0.63835092    -0.36400
C787        C  0.01238867  0.48240462  0.63591122     0.15900
C788        C  0.02618242  0.48605579  0.66314740     0.21800
C789        C  0.01682948  0.48018265  0.69520387    -0.34500
C790        C  0.99289447  0.47069430  0.69770338     0.15900
O791        O  0.95756276  0.45970201  0.67849443    -0.26500
C792        C  0.95735526  0.45869690  0.71141077     0.05600
C793        C  0.97888538  0.46528154  0.72478681    -0.31400
O794        O  0.04828378  0.49722867  0.65557434    -0.23200
C795        C  0.04871283  0.50088293  0.62310683    -0.03200
C796        C  0.02683999  0.49193770  0.60949828    -0.17700
H797        H  0.97788045  0.47059816  0.61698337     0.20300
H798        H  0.02760662  0.48379188  0.71682036     0.18700
H799        H  0.98372182  0.46700569  0.75060877     0.18700
H800        H  0.02233724  0.49350229  0.58429282     0.14500
C801        C  0.98663537  0.51460674  0.38509395     0.30000
C802        C  0.01063892  0.52442987  0.38387031    -0.36400
C803        C  0.02214558  0.53109633  0.41433214     0.15900
C804        C  0.01087680  0.52817554  0.44406657     0.21800
C805        C  0.98689638  0.51863204  0.44523314    -0.34500
C806        C  0.97539964  0.51213624  0.41473182     0.15900
O807        O  0.97228297  0.50554810  0.35997319    -0.26500
C808        C  0.95158722  0.49744734  0.37363486     0.05600
C809        C  0.95252142  0.50118059  0.40760799    -0.31400
O810        O  0.02486232  0.53396747  0.46975446    -0.23200
C811        C  0.04539532  0.54088235  0.45623540    -0.03200
C812        C  0.04470015  0.53955073  0.42183201    -0.17700
H813        H  0.01963576  0.52606159  0.36091548     0.20300
H814        H  0.97775057  0.51579680  0.46839007     0.18700
H815        H  0.93831397  0.49535227  0.42484612     0.18700
H816        H  0.05861466  0.54312762  0.40492378     0.14500
C817        C  0.28141416  0.68202257  0.96359323     0.30000
C818        C  0.30548806  0.69244600  0.96467539    -0.36400
C819        C  0.31790081  0.71654336  0.96150753     0.15900
C820        C  0.30735439  0.72955543  0.95819532     0.21800
C821        C  0.28327127  0.71908729  0.95650238    -0.34500
C822        C  0.27086313  0.69492320  0.95891998     0.15900
O823        O  0.26647717  0.65986162  0.96753806    -0.26500
C824        C  0.24609117  0.65844380  0.96448890     0.05600
C825        C  0.24773924  0.67969229  0.95887399    -0.31400
O826        O  0.32232615  0.75180923  0.95531609    -0.23200
C827        C  0.34268972  0.75300790  0.95644281    -0.03200
C828        C  0.34101094  0.73160630  0.95999676    -0.17700
H829        H  0.31394678  0.68245877  0.96776829     0.20300
H830        H  0.27481457  0.72907078  0.95333938     0.18700
H831        H  0.23391399  0.68348704  0.95713063     0.18700
H832        H  0.35479785  0.72770922  0.96039701     0.14500
C833        C  0.98915922  0.46781309  0.19454210     0.30000
C834        C  0.01294607  0.47602387  0.19568475    -0.36400
C835        C  0.02442173  0.48132795  0.16505242     0.15900
C836        C  0.01330050  0.47887738  0.13533623     0.21800
C837        C  0.98946926  0.47022904  0.13415492    -0.34500
C838        C  0.97801252  0.46488270  0.16473096     0.15900
O839        O  0.97535216  0.46347734  0.22021321    -0.26500
C840        C  0.95506551  0.45753301  0.20659881     0.05600
C841        C  0.95574132  0.45804496  0.17216601    -0.31400
O842        O  0.02771943  0.48750494  0.11013193    -0.23200
C843        C  0.04836672  0.49534110  0.12374352    -0.03200
C844        C  0.04731663  0.49172817  0.15782202    -0.17700
H845        H  0.02204404  0.47901295  0.21888820     0.20300
H846        H  0.98064982  0.46880446  0.11111028     0.18700
H847        H  0.94202156  0.45483347  0.15511792     0.18700
H848        H  0.06149251  0.49778488  0.17509592     0.14500
C849        C  0.15572970  0.58820154  0.81593055     0.30000
C850        C  0.17003627  0.59758662  0.78808448    -0.36400
C851        C  0.16054875  0.58688168  0.75773182     0.15900
C852        C  0.13841689  0.56839734  0.75486180     0.21800
C853        C  0.12406404  0.55913600  0.78264365    -0.34500
C854        C  0.13361786  0.56969226  0.81301025     0.15900
O855        O  0.16146525  0.59465806  0.84696622    -0.26500
C856        C  0.14276542  0.58006768  0.86412683     0.05600
C857        C  0.12488897  0.56424914  0.84422717    -0.31400
O858        O  0.13323088  0.56076907  0.72421683    -0.23200
C859        C  0.15234975  0.57444347  0.70722578    -0.03200
C860        C  0.16990045  0.59102178  0.72681651    -0.17700
H861        H  0.18752369  0.61187347  0.79005177     0.20300
H862        H  0.10680866  0.54442075  0.78081303     0.18700
H863        H  0.10814898  0.55029773  0.85179752     0.18700
H864        H  0.18706849  0.60414279  0.71934630     0.14500
C865        C  0.16169195  0.57810550  0.25435109     0.30000
C866        C  0.17389223  0.58872148  0.28334799    -0.36400
C867        C  0.16109892  0.58187420  0.31282895     0.15900
C868        C  0.13788264  0.56573081  0.31372359     0.21800
C869        C  0.12562980  0.55529129  0.28469141    -0.34500
C870        C  0.13844150  0.56207866  0.25522972     0.15900
O871        O  0.17032949  0.58157950  0.22417843    -0.26500
C872        C  0.15238733  0.56758397  0.20546245     0.05600
C873        C  0.13207149  0.55507591  0.22345596    -0.31400
O874        O  0.12948022  0.56144407  0.34406530    -0.23200
C875        C  0.14753035  0.57504404  0.36288398    -0.03200
C876        C  0.16765572  0.58822072  0.34476119    -0.17700
H877        H  0.19214237  0.60123374  0.28299296     0.20300
H878        H  0.10744804  0.54254200  0.28510020     0.18700
H879        H  0.11512692  0.54259961  0.21442695     0.18700
H880        H  0.18467105  0.60043188  0.35385550     0.14500
C881        C  0.98446847  0.51644562  0.89002626     0.30000
C882        C  0.00847531  0.52673873  0.88918841    -0.36400
C883        C  0.01957360  0.53240570  0.91991107     0.15900
C884        C  0.00797009  0.52816333  0.94962494     0.21800
C885        C  0.98392541  0.51832132  0.95043597    -0.34500
C886        C  0.97279430  0.51277061  0.91958726     0.15900
O887        O  0.97053645  0.50766285  0.86447529    -0.26500
C888        C  0.94963288  0.49853047  0.87770931     0.05600
C889        C  0.94998707  0.50136188  0.91187436    -0.31400
O890        O  0.02171964  0.53281061  0.97542340    -0.23200
C891        C  0.04237610  0.54033924  0.96187224    -0.03200
C892        C  0.04200375  0.54056743  0.92747171    -0.17700
H893        H  0.01777372  0.52921280  0.86626156     0.20300
H894        H  0.97446832  0.51435927  0.97349177     0.18700
H895        H  0.93551601  0.49447931  0.92879230     0.18700
H896        H  0.05604526  0.54481481  0.91045990     0.14500
C897        C  0.40967884  0.68311980  0.79992268     0.30000
C898        C  0.40925732  0.69506619  0.82802911    -0.36400
C899        C  0.40899334  0.71554073  0.82202652     0.15900
C900        C  0.40939261  0.72391167  0.79061710     0.21800
C901        C  0.40977220  0.71195327  0.76253454    -0.34500
C902        C  0.40977851  0.69136828  0.76853118     0.15900
O903        O  0.40960423  0.66339275  0.79960228    -0.26500
C904        C  0.40946371  0.65894414  0.76754937     0.05600
C905        C  0.40958253  0.67576597  0.74716394    -0.31400
O906        O  0.40911375  0.74344534  0.79084236    -0.23200
C907        C  0.40832412  0.74749732  0.82284103    -0.03200
C908        C  0.40820724  0.73070609  0.84332639    -0.17700
H909        H  0.40894545  0.68875254  0.85281445     0.20300
H910        H  0.40985848  0.71815000  0.73774225     0.18700
H911        H  0.40947546  0.67634856  0.72039681     0.18700
H912        H  0.40773794  0.72989241  0.87008814     0.14500
C913        C  0.28234889  0.59165871  0.59438387     0.30000
C914        C  0.29971220  0.58814067  0.58168652    -0.36400
C915        C  0.31682274  0.59102485  0.60400107     0.15900
C916        C  0.31708428  0.59737782  0.63649359     0.21800
C917        C  0.29953430  0.60077734  0.64930297    -0.34500
C918        C  0.28206970  0.59744781  0.62702674     0.15900
O919        O  0.26481253  0.58979103  0.57759959    -0.26500
C920        C  0.25277537  0.59411445  0.59958642     0.05600
C921        C  0.26256811  0.59891214  0.63101268    -0.31400
O922        O  0.33473740  0.59892322  0.65298163    -0.23200
C923        C  0.34566834  0.59320756  0.63082082    -0.03200
C924        C  0.33527407  0.58808143  0.59992230    -0.17700
H925        H  0.29972242  0.58325093  0.55620289     0.20300
H926        H  0.29938268  0.60541356  0.67487448     0.18700
H927        H  0.25653466  0.60327626  0.65312242     0.18700
H928        H  0.34044894  0.58277506  0.57784319     0.14500
C929        C  0.40432172  0.68633108  0.27040764     0.30000
C930        C  0.40383099  0.70611954  0.26023459    -0.36400
C931        C  0.40404955  0.72041510  0.28557574     0.15900
C932        C  0.40453190  0.71536497  0.31858329     0.21800
C933        C  0.40522274  0.69568245  0.32873473    -0.34500
C934        C  0.40517803  0.68147878  0.30339979     0.15900
O935        O  0.40414274  0.67064636  0.25085391    -0.26500
C936        C  0.40502054  0.65556846  0.27143784     0.05600
C937        C  0.40579788  0.66143135  0.30455660    -0.31400
O938        O  0.40453432  0.73094869  0.33817846    -0.23200
C939        C  0.40421250  0.74632222  0.31760753    -0.03200
C940        C  0.40395580  0.74073594  0.28444300    -0.17700
H941        H  0.40334523  0.71008174  0.23437089     0.20300
H942        H  0.40579114  0.69176102  0.35459455     0.18700
H943        H  0.40657023  0.65226095  0.32615209     0.18700
H944        H  0.40376878  0.75021779  0.26283795     0.14500
C945        C  0.27880463  0.59353912  0.12250582     0.30000
C946        C  0.29497613  0.59759892  0.14747492    -0.36400
C947        C  0.31322236  0.59408239  0.13858704     0.15900
C948        C  0.31520457  0.58674622  0.10752025     0.21800
C949        C  0.29924038  0.58290422  0.08263728    -0.34500
C950        C  0.28130933  0.58673674  0.09133383     0.15900
O951        O  0.26046124  0.59595153  0.12482837    -0.26500
C952        C  0.25147949  0.59088402  0.09453579     0.05600
C953        C  0.26378998  0.58509872  0.07286339    -0.31400
O954        O  0.33334321  0.58423509  0.10457547    -0.23200
C955        C  0.34336966  0.59032118  0.13400772    -0.03200
C956        C  0.33165787  0.59665699  0.15617598    -0.17700
H957        H  0.29354897  0.60324275  0.17195115     0.20300
H958        H  0.30078043  0.57745435  0.05807118     0.18700
H959        H  0.26027366  0.58035709  0.04704990     0.18700
H960        H  0.33598486  0.60209203  0.18162702     0.14500
C961        C  0.42037112  0.58154668  0.92349334     0.30000
C962        C  0.41043975  0.58389457  0.95270577    -0.36400
C963        C  0.41775341  0.57853838  0.98224017     0.15900
C964        C  0.43376889  0.57142315  0.98296652     0.21800
C965        C  0.44359757  0.56896726  0.95378095    -0.34500
C966        C  0.43625446  0.57426451  0.92428436     0.15900
O967        O  0.41622981  0.58581896  0.89314774    -0.26500
C968        C  0.42960157  0.58115266  0.87428369     0.05600
C969        C  0.44240043  0.57384155  0.89233582    -0.31400
O970        O  0.43820429  0.56742865  0.01325520    -0.23200
C971        C  0.42480506  0.57195128  0.03224475    -0.03200
C972        C  0.41167476  0.57893407  0.01429364    -0.17700
H973        H  0.39793783  0.58954588  0.95243098     0.20300
H974        H  0.45613431  0.56335993  0.95406104     0.18700
H975        H  0.45457018  0.56907281  0.88322816     0.18700
H976        H  0.39946165  0.58360106  0.02353442     0.14500
C977        C  0.43284689  0.56859547  0.48349841     0.30000
C978        C  0.44365619  0.56739463  0.45453717    -0.36400
C979        C  0.43599865  0.57224314  0.42499030     0.15900
C980        C  0.41894054  0.57795893  0.42400954     0.21800
C981        C  0.40809713  0.57911590  0.45296909    -0.34500
C982        C  0.41571624  0.57420980  0.48250754     0.15900
O983        O  0.43736433  0.56480583  0.51382271    -0.26500
C984        C  0.42292461  0.56800590  0.53247540     0.05600
C985        C  0.40902012  0.57388055  0.51434937    -0.31400
O986        O  0.41462043  0.58201410  0.39371239    -0.23200
C987        C  0.42904598  0.57878604  0.37505291    -0.03200
C988        C  0.44275402  0.57264511  0.39315661    -0.17700
H989        H  0.45710311  0.56301472  0.45501724     0.20300
H990        H  0.39470453  0.58357183  0.45250278     0.18700
H991        H  0.39598569  0.57747113  0.52335870     0.18700
H992        H  0.45585278  0.56914186  0.38416639     0.14500
C993        C  0.59187506  0.31183255  0.02632259     0.30000
C994        C  0.59484516  0.29375269  0.01453089    -0.36400
C995        C  0.59263981  0.27731901  0.03820253     0.15900
C996        C  0.58816781  0.27896729  0.07108817     0.21800
C997        C  0.58491790  0.29674037  0.08269469    -0.34500
C998        C  0.58680149  0.31286733  0.05911981     0.15900
O999        O  0.59322500  0.32914422  0.00884177    -0.26500
C1000       C  0.58867601  0.34113124  0.03077465     0.05600
C1001       C  0.58445748  0.33173263  0.06238281    -0.31400
O1002       O  0.58745493  0.26240026  0.08929485    -0.23200
C1003       C  0.59123767  0.24961257  0.06803703    -0.03200
C1004       C  0.59446459  0.25791664  0.03565623    -0.17700
H1005       H  0.59862312  0.29261068  0.98881745     0.20300
H1006       H  0.58120650  0.29791866  0.10843309     0.18700
H1007       H  0.58041763  0.33800110  0.08455173     0.18700
H1008       H  0.59805292  0.25099392  0.01379544     0.14500
C1009       C  0.68249174  0.40889448  0.86379248     0.30000
C1010       C  0.69656793  0.41117640  0.83678729    -0.36400
C1011       C  0.71657086  0.41040176  0.84420318     0.15900
C1012       C  0.72263347  0.40792484  0.87596340     0.21800
C1013       C  0.70861436  0.40573356  0.90295626    -0.34500
C1014       C  0.68844935  0.40614379  0.89547939     0.15900
O1015       O  0.66270043  0.40866104  0.86269649    -0.26500
C1016       C  0.65589180  0.40549615  0.89413011     0.05600
C1017       C  0.67126293  0.40382934  0.91546441    -0.31400
O1018       O  0.74186397  0.40710332  0.87698921    -0.23200
C1019       C  0.74799832  0.40883134  0.84537874    -0.03200
C1020       C  0.73294386  0.41100114  0.82400183    -0.17700
H1021       H  0.69206074  0.41301376  0.81170589     0.20300
H1022       H  0.71289064  0.40343959  0.92796578     0.18700
H1023       H  0.67000225  0.40141644  0.94204132     0.18700
H1024       H  0.73382528  0.41251606  0.79729688     0.14500
C1025       C  0.53107126  0.51832012  0.86079224     0.30000
C1026       C  0.51975585  0.53105602  0.86278041    -0.36400
C1027       C  0.51329152  0.53647492  0.83251813     0.15900
C1028       C  0.51736192  0.52958357  0.80236454     0.21800
C1029       C  0.52922574  0.51741497  0.80033815    -0.34500
C1030       C  0.53596906  0.51228240  0.83054126     0.15900
O1031       O  0.53673446  0.50950721  0.88592004    -0.26500
C1032       C  0.54580519  0.49809373  0.87149127     0.05600
C1033       C  0.54594924  0.49943394  0.83712585    -0.31400
O1034       O  0.50782584  0.53452486  0.77746856    -0.23200
C1035       C  0.49787493  0.54510913  0.79180780    -0.03200
C1036       C  0.50086471  0.54693771  0.82597830    -0.17700
H1037       H  0.51548561  0.53563823  0.88628944     0.20300
H1038       H  0.53223309  0.51159435  0.77692922     0.18700
H1039       H  0.55114598  0.49078026  0.81954160     0.18700
H1040       H  0.49369411  0.55372770  0.84361348     0.14500
C1041       C  0.47764190  0.46667489  0.05050738     0.30000
C1042       C  0.46578351  0.47890230  0.05067851    -0.36400
C1043       C  0.46181146  0.48531814  0.08190386     0.15900
C1044       C  0.46879355  0.47990501  0.11103754     0.21800
C1045       C  0.48012292  0.46719554  0.11091076    -0.34500
C1046       C  0.48426148  0.46095656  0.07971246     0.15900
O1047       O  0.48599680  0.46179304  0.02415179    -0.26500
C1048       C  0.49801723  0.45274899  0.03671796     0.05600
C1049       C  0.49729008  0.45158926  0.07111629    -0.31400
O1050       O  0.46560908  0.48979100  0.13706855    -0.23200
C1051       C  0.45642536  0.50165971  0.12445370    -0.03200
C1052       C  0.45353486  0.49937978  0.09029516    -0.17700
H1053       H  0.46128683  0.48431927  0.02800566     0.20300
H1054       H  0.48652446  0.46364502  0.13342564     0.18700
H1055       H  0.50667807  0.44645022  0.08749029     0.18700
H1056       H  0.44758454  0.50803903  0.07382058     0.14500
C1057       C  0.59696198  0.28018723  0.54414005     0.30000
C1058       C  0.60165302  0.29691300  0.51955154    -0.36400
C1059       C  0.59721780  0.31464352  0.52817343     0.15900
C1060       C  0.58846277  0.31565128  0.55862553     0.21800
C1061       C  0.58403976  0.29916634  0.58316645    -0.34500
C1062       C  0.58874737  0.28173537  0.57474850     0.15900
O1063       O  0.60003650  0.26218798  0.54200596    -0.26500
C1064       C  0.59394358  0.25244124  0.57188149     0.05600
C1065       C  0.58684632  0.26393594  0.59305434    -0.31400
O1066       O  0.58504333  0.33329789  0.56126544    -0.23200
C1067       C  0.59195475  0.34401315  0.53225520    -0.03200
C1068       C  0.59979961  0.33323853  0.51072312    -0.17700
H1069       H  0.60836840  0.29623514  0.49551541     0.20300
H1070       H  0.57744735  0.29991778  0.60727281     0.18700
H1071       H  0.58118599  0.25976847  0.61850936     0.18700
H1072       H  0.60605327  0.33816778  0.48563772     0.14500
C1073       C  0.68977925  0.40721368  0.39885955     0.30000
C1074       C  0.70991118  0.40765963  0.40940254    -0.36400
C1075       C  0.72349066  0.40611240  0.38439813     0.15900
C1076       C  0.71745713  0.40413333  0.35143312     0.21800
C1077       C  0.69747046  0.40390234  0.34089256    -0.34500
C1078       C  0.68399537  0.40560022  0.36582560     0.15900
O1079       O  0.67445327  0.40807350  0.41802919    -0.26500
C1080       C  0.65875023  0.40717670  0.39705460     0.05600
C1081       C  0.66379282  0.40573402  0.36414720    -0.31400
O1082       O  0.73245082  0.40280788  0.33217947    -0.23200
C1083       C  0.74841419  0.40404498  0.35287845    -0.03200
C1084       C  0.74384848  0.40618772  0.38582206    -0.17700
H1085       H  0.71459491  0.40905184  0.43526201     0.20300
H1086       H  0.69276988  0.40247770  0.31503633     0.18700
H1087       H  0.65387798  0.40456148  0.34238569     0.18700
H1088       H  0.75402327  0.40769556  0.40742896     0.14500
C1089       C  0.57956051  0.41992445  0.73835170     0.30000
C1090       C  0.58229131  0.41046738  0.70901355    -0.36400
C1091       C  0.57582259  0.41703374  0.67982032     0.15900
C1092       C  0.56736746  0.43199190  0.67942023     0.21800
C1093       C  0.56460856  0.44144638  0.70879545    -0.34500
C1094       C  0.57099310  0.43479206  0.73804068     0.15900
O1095       O  0.58444322  0.41603741  0.76843492    -0.26500
C1096       C  0.57893184  0.42856259  0.78770180     0.05600
C1097       C  0.57045619  0.44059636  0.77014503    -0.31400
O1098       O  0.56256618  0.43586784  0.64924582    -0.23200
C1099       C  0.56790913  0.42312133  0.63012840    -0.03200
C1100       C  0.57621963  0.41102577  0.64783065    -0.17700
H1101       H  0.58894749  0.39876220  0.70896226     0.20300
H1102       H  0.55794718  0.45314723  0.70884774     0.18700
H1103       H  0.56473779  0.45193314  0.77967746     0.18700
H1104       H  0.58189010  0.39961904  0.63843348     0.14500
C1105       C  0.57604505  0.41628956  0.17823359     0.30000
C1106       C  0.58351047  0.40903395  0.20582522    -0.36400
C1107       C  0.58218476  0.41808815  0.23648902     0.15900
C1108       C  0.57403872  0.43319394  0.23979143     0.21800
C1109       C  0.56662562  0.44046401  0.21224045    -0.34500
C1110       C  0.56799543  0.43146557  0.18162759     0.15900
O1111       O  0.57590344  0.41017142  0.14716385    -0.26500
C1112       C  0.56771623  0.42165644  0.13048293     0.05600
C1113       C  0.56250806  0.43515479  0.15069946    -0.31400
O1114       O  0.57411085  0.43936730  0.27075759    -0.23200
C1115       C  0.58243251  0.42809686  0.28760101    -0.03200
C1116       C  0.58778743  0.41460621  0.26753999    -0.17700
H1117       H  0.58991458  0.39718633  0.20355010     0.20300
H1118       H  0.56024681  0.45233357  0.21451073     0.18700
H1119       H  0.55578297  0.44619459  0.14357152     0.18700
H1120       H  0.59463285  0.40370227  0.27483732     0.14500
C1121       C  0.52089653  0.53257538  0.30057454     0.30000
C1122       C  0.53340872  0.52103067  0.29820218    -0.36400
C1123       C  0.53954503  0.51503880  0.32830415     0.15900
C1124       C  0.53352749  0.51977133  0.35868788     0.21800
C1125       C  0.52157388  0.53185748  0.36105986    -0.34500
C1126       C  0.51569641  0.53809765  0.33098964     0.15900
O1127       O  0.51162091  0.53797455  0.27576599    -0.26500
C1128       C  0.50071184  0.54748336  0.29050713     0.05600
C1129       C  0.50284026  0.54814818  0.32480446    -0.31400
O1130       O  0.53882519  0.51041863  0.38350034    -0.23200
C1131       C  0.54875383  0.49989325  0.36887186    -0.03200
C1132       C  0.54983970  0.50238538  0.33458125    -0.17700
H1133       H  0.53729023  0.51623433  0.27457193     0.20300
H1134       H  0.51640231  0.53534715  0.38468048     0.18700
H1135       H  0.49477852  0.55383085  0.34268580     0.18700
H1136       H  0.55587578  0.49461499  0.31675636     0.14500
C1137       C  0.48663842  0.46337406  0.57501462     0.30000
C1138       C  0.48233682  0.46727469  0.60759949    -0.36400
C1139       C  0.46974621  0.47856899  0.61121941     0.15900
C1140       C  0.46187529  0.48550137  0.58452997     0.21800
C1141       C  0.46590689  0.48130719  0.55185980    -0.34500
C1142       C  0.47861882  0.47007466  0.54823652     0.15900
O1143       O  0.49991830  0.45513504  0.56620212    -0.26500
C1144       C  0.50044931  0.45643642  0.53334224     0.05600
C1145       C  0.48739844  0.46551461  0.52066907    -0.31400
O1146       O  0.45263257  0.49790832  0.59352972    -0.23200
C1147       C  0.45447784  0.49883427  0.62638429    -0.03200
C1148       C  0.46486548  0.48696133  0.63879542    -0.17700
H1149       H  0.48929363  0.46280302  0.62864378     0.20300
H1150       H  0.46050985  0.48740121  0.53078126     0.18700
H1151       H  0.48583812  0.46952006  0.49517370     0.18700
H1152       H  0.46970344  0.48615818  0.66409635     0.14500
loop_ 
_geom_bond_atom_site_label_1 
_geom_bond_atom_site_label_2 
_geom_bond_distance 
_geom_bond_site_symmetry_2 
_ccdc_geom_bond_type 
O1           Mg3   2.129       .  S
O1           Mg9   2.138       .  S
O1           C36   1.238       .  S
C2           O15   1.235       .  S
C2           O39   1.267       .  A
C2           H41   1.081       .  S
Mg3          O32   2.156       .  S
Mg3          O47   2.336       .  S
Mg3          O43   2.262       .  S
Mg3          O14   2.316       .  S
O4          Mg46   2.155       .  S
O4          Mg29   2.144       .  S
O4           C25   1.236       .  S
O5           C36   1.271       .  A
O5          Mg29   2.296       .  S
C6            O8   1.271       .  A
C6           O20   1.278       .  A
C6         C1131   1.475       .  S
O7           C35   1.273       .  A
O7           Mg9   2.302       .  S
O8          Mg40   2.259       .  S
Mg9          O15   2.098       .  S
Mg9          O23   2.207       .  S
Mg9          O11   2.287       .  S
C10          O48   1.275       .  A
C10          O16   1.273       .  A
C10        C1144   1.470       .  S
O11          C18   1.272       .  A
H12          C25   1.081       .  S
C13          O27   1.237       .  S
C13          O28   1.272       .  A
C13          H38   1.081       .  S
O14          C37   1.273       .  A
O15         Mg29   2.133       .  S
O16         Mg46   2.281       .  S
C17          O30   1.274       .  A
C17          O22   1.277       .  A
C17        C1099   1.471       .  S
C18          O45   1.276       .  A
C18        C1067   1.474       .  S
Mg19         O26   2.167       .  S
Mg19         O27   2.155       .  S
Mg19         O20   2.336       .  S
Mg19         O21   2.299       .  S
Mg19         O48   2.294       .  S
O21          C25   1.270       .  A
O22         Mg29   2.305       .  S
O23          C42   1.264       .  A
O24          C44   1.276       .  A
O24         Mg40   2.321       .  S
O26         Mg40   2.149       .  S
O26          C37   1.237       .  S
O27         Mg46   2.160       .  S
O28         Mg40   2.310       .  S
Mg29         O45   2.300       .  S
O30         Mg46   2.279       .  S
H31          C36   1.081       .  S
O32         Mg40   2.146       .  S
O32          C35   1.239       .  S
H33          C35   1.081       .  S
H34          C37   1.081       .  S
O39         Mg46   2.278       .  S
C42          O47   1.277       .  A
C42        C1080   1.464       .  S
O43          C44   1.271       .  A
C44        C1115   1.473       .  S
O49         Mg51   2.137       .  S
O49         Mg57   2.130       .  S
O49          C84   1.239       .  S
C50          O63   1.236       .  S
C50          O87   1.268       .  A
C50          H89   1.081       .  S
Mg51         O80   2.150       .  S
Mg51         O95   2.352       .  S
Mg51         O91   2.266       .  S
Mg51         O62   2.317       .  S
O52         Mg94   2.147       .  S
O52         Mg77   2.135       .  S
O52          C73   1.236   1_554  S
O53          C84   1.273       .  A
O53         Mg77   2.306   1_556  S
C54          O56   1.270       .  A
C54          O68   1.277       .  A
C54        C1032   1.472       .  S
O55          C83   1.273       .  A
O55         Mg57   2.307       .  S
O56         Mg88   2.247       .  S
Mg57         O63   2.108   1_556  S
Mg57         O71   2.204       .  S
Mg57         O59   2.294       .  S
C58          O96   1.275   1_554  A
C58          O64   1.273       .  A
C58        C1048   1.471       .  S
O59          C66   1.271   1_556  A
H60          C73   1.081   1_554  S
C61          O75   1.236       .  S
C61          O76   1.270       .  A
C61          H86   1.081       .  S
O62          C85   1.274       .  A
O63         Mg77   2.131       .  S
O64         Mg94   2.276       .  S
C65          O78   1.273       .  A
C65          O70   1.277       .  A
C65        C1112   1.473       .  S
C66          O93   1.274       .  A
C66        C1000   1.469       .  S
Mg67         O74   2.166       .  S
Mg67         O75   2.154       .  S
Mg67         O68   2.337       .  S
Mg67         O69   2.297       .  S
Mg67         O96   2.294       .  S
O69          C73   1.270       .  A
O70         Mg77   2.322       .  S
O71          C90   1.265       .  A
O72          C92   1.274       .  A
O72         Mg88   2.305       .  S
O74         Mg88   2.149       .  S
O74          C85   1.238       .  S
O75         Mg94   2.147   1_556  S
O76         Mg88   2.301       .  S
Mg77         O93   2.279       .  S
O78         Mg94   2.266       .  S
H79          C84   1.081       .  S
O80         Mg88   2.144       .  S
O80          C83   1.238       .  S
H81          C83   1.081       .  S
H82          C85   1.081       .  S
O87         Mg94   2.283       .  S
C90          O95   1.278       .  A
C90        C1016   1.470       .  S
O91          C92   1.272       .  A
C92        C1096   1.471       .  S
O97         Mg99   2.128       .  S
O97        Mg105   2.134       .  S
O97         C132   1.238       .  S
C98         O111   1.236       .  S
C98         O135   1.268       .  A
C98         H137   1.081       .  S
Mg99        O128   2.156       .  S
Mg99        O143   2.348       .  S
Mg99        O139   2.252       .  S
Mg99        O110   2.316       .  S
O100       Mg142   2.148       .  S
O100       Mg125   2.132       .  S
O100        C121   1.236       .  S
O101        C132   1.272       .  A
O101       Mg125   2.300       .  S
C102        O104   1.271       .  A
C102        O116   1.278       .  A
C102       C1128   1.475       .  S
O103        C131   1.273       .  A
O103       Mg105   2.305       .  S
O104       Mg136   2.257       .  S
Mg105       O111   2.105       .  S
Mg105       O119   2.210       .  S
Mg105       O107   2.284       .  S
C106        O144   1.275       .  A
C106        O112   1.273       .  A
C106       C1051   1.470       .  S
O107        C114   1.271       .  A
H108        C121   1.081       .  S
C109        O123   1.236       .  S
C109        O124   1.271       .  A
C109        H134   1.081       .  S
O110        C133   1.273       .  A
O111       Mg125   2.136       .  S
O112       Mg142   2.281       .  S
C113        O126   1.273       .  A
C113        O118   1.277       .  A
C113        C971   1.471       .  S
C114        O141   1.273       .  A
C114        C955   1.468       .  S
Mg115       O122   2.165       .  S
Mg115       O123   2.155       .  S
Mg115       O116   2.339       .  S
Mg115       O117   2.295       .  S
Mg115       O144   2.290       .  S
O117        C121   1.270       .  A
O118       Mg125   2.311       .  S
O119        C138   1.264       .  A
O120        C140   1.275       .  A
O120       Mg136   2.307       .  S
O122       Mg136   2.149       .  S
O122        C133   1.237       .  S
O123       Mg142   2.154       .  S
O124       Mg136   2.303       .  S
Mg125       O141   2.282       .  S
O126       Mg142   2.272       .  S
H127        C132   1.081       .  S
O128       Mg136   2.148       .  S
O128        C131   1.238       .  S
H129        C131   1.081       .  S
H130        C133   1.081       .  S
O135       Mg142   2.282       .  S
C138        O143   1.278       .  A
C138        C936   1.468       .  S
O139        C140   1.270       .  A
C140        C987   1.467       .  S
O145       Mg147   2.129       .  S
O145       Mg153   2.136       .  S
O145        C180   1.238       .  S
C146        O159   1.235       .  S
C146        O183   1.267       .  A
C146        H185   1.081       .  S
Mg147       O176   2.155       .  S
Mg147       O191   2.336       .  S
Mg147       O187   2.263       .  S
Mg147       O158   2.317       .  S
O148       Mg190   2.153       .  S
O148       Mg173   2.135       .  S
O148        C169   1.236       .  S
O149        C180   1.271       .  A
O149       Mg173   2.298       .  S
C150        O152   1.270       .  A
C150        O164   1.278       .  A
C150       C1035   1.472       .  S
O151        C179   1.273       .  A
O151       Mg153   2.303       .  S
O152       Mg184   2.247       .  S
Mg153       O159   2.101       .  S
Mg153       O167   2.213       .  S
Mg153       O155   2.289       .  S
C154        O192   1.276       .  A
C154        O160   1.272       .  A
C154       C1147   1.470       .  S
O155        C162   1.271       .  A
H156        C169   1.081       .  S
C157        O171   1.236       .  S
C157        O172   1.271       .  A
C157        H182   1.081       .  S
O158        C181   1.273       .  A
O159       Mg173   2.135       .  S
O160       Mg190   2.278       .  S
C161        O174   1.272       .  A
C161        O166   1.275       .  A
C161        C984   1.466       .  S
C162        O189   1.274       .  A
C162        C923   1.468       .  S
Mg163       O170   2.169       .  S
Mg163       O171   2.151       .  S
Mg163       O164   2.334       .  S
Mg163       O165   2.296       .  S
Mg163       O192   2.296       .  S
O165        C169   1.270       .  A
O166       Mg173   2.295       .  S
O167        C186   1.266       .  A
O168        C188   1.275       .  A
O168       Mg184   2.308       .  S
O170       Mg184   2.153       .  S
O170        C181   1.237       .  S
O171       Mg190   2.151       .  S
O172       Mg184   2.305       .  S
Mg173       O189   2.281       .  S
O174       Mg190   2.263       .  S
H175        C180   1.081       .  S
O176       Mg184   2.144       .  S
O176        C179   1.239       .  S
H177        C179   1.081       .  S
H178        C181   1.081       .  S
O183       Mg190   2.278       .  S
C186        O191   1.277       .  A
C186        C904   1.468       .  S
O187        C188   1.271       .  A
C188        C968   1.471       .  S
O193       Mg195   2.133       .  S
O193       Mg201   2.142       .  S
O193        C228   1.238       .  S
C194        O207   1.235       .  S
C194        O231   1.266       .  A
C194        H233   1.081       .  S
Mg195       O224   2.159       .  S
Mg195       O239   2.347       .  S
Mg195       O235   2.269       .  S
Mg195       O206   2.317       .  S
O196       Mg238   2.152       .  S
O196       Mg221   2.135       .  S
O196        C217   1.235       .  S
O197        C228   1.271       .  A
O197       Mg221   2.292   1_554  S
C198        O200   1.271       .  A
C198        O212   1.276       .  A
C198        C843   1.474       .  S
O199        C227   1.273       .  A
O199       Mg201   2.301       .  S
O200       Mg232   2.260       .  S
Mg201       O207   2.100   1_554  S
Mg201       O215   2.217       .  S
Mg201       O203   2.290   1_554  S
C202        O240   1.275   1_556  A
C202        O208   1.272       .  A
C202        C891   1.471       .  S
O203        C210   1.273       .  A
H204        C217   1.081       .  S
C205        O219   1.237       .  S
C205        O220   1.272       .  A
C205        H230   1.081       .  S
O206        C229   1.274       .  A
O207       Mg221   2.147       .  S
O208       Mg238   2.273       .  S
C209        O222   1.275       .  A
C209        O214   1.278       .  A
C209        C856   1.474       .  S
C210        O237   1.275       .  A
C210        C824   1.468       .  S
Mg211       O218   2.164       .  S
Mg211       O219   2.160       .  S
Mg211       O212   2.325       .  S
Mg211       O213   2.292       .  S
Mg211       O240   2.295       .  S
O213        C217   1.269   1_554  A
O214       Mg221   2.323       .  S
O215        C234   1.268       .  A
O216        C236   1.275       .  A
O216       Mg232   2.309       .  S
O218       Mg232   2.147       .  S
O218        C229   1.238       .  S
O219       Mg238   2.157   1_554  S
O220       Mg232   2.310       .  S
Mg221       O237   2.285       .  S
O222       Mg238   2.270       .  S
H223        C228   1.081       .  S
O224       Mg232   2.148       .  S
O224        C227   1.239       .  S
H225        C227   1.081       .  S
H226        C229   1.081       .  S
O231       Mg238   2.275       .  S
C234        O239   1.278       .  A
C234        C952   1.470       .  S
O235        C236   1.272       .  A
C236        C872   1.472       .  S
O241       Mg243   2.127       .  S
O241       Mg249   2.128       .  S
O241        C276   1.239       .  S
C242        O255   1.234       .  S
C242        O279   1.266       .  A
C242        H281   1.081       .  S
Mg243       O272   2.158       .  S
Mg243       O287   2.364       .  S
Mg243       O283   2.259       .  S
Mg243       O254   2.318       .  S
O244       Mg286   2.153       .  S
O244       Mg269   2.130       .  S
O244        C265   1.235       .  S
O245        C276   1.273       .  A
O245       Mg269   2.304       .  S
C246        O248   1.270       .  A
C246        O260   1.278       .  A
C246        C795   1.472       .  S
O247        C275   1.273       .  A
O247       Mg249   2.300       .  S
O248       Mg280   2.255       .  S
Mg249       O255   2.100       .  S
Mg249       O263   2.195       .  S
Mg249       O251   2.267       .  S
C250        O288   1.276       .  A
C250        O256   1.273       .  A
C250        C811   1.473       .  S
O251        C258   1.269       .  A
H252        C265   1.081       .  S
C253        O267   1.237       .  S
C253        O268   1.272       .  A
C253        H278   1.081       .  S
O254        C277   1.273       .  A
O255       Mg269   2.133       .  S
O256       Mg286   2.279       .  S
C257        O270   1.274       .  A
C257        O262   1.277       .  A
C257        C875   1.472       .  S
C258        O285   1.273       .  A
C258        C779   1.463       .  S
Mg259       O266   2.176       .  S
Mg259       O267   2.159       .  S
Mg259       O260   2.327       .  S
Mg259       O261   2.293       .  S
Mg259       O288   2.300       .  S
O261        C265   1.269       .  A
O262       Mg269   2.313       .  S
O263        C282   1.263       .  A
O264        C284   1.277       .  A
O264       Mg280   2.327       .  S
O266       Mg280   2.153       .  S
O266        C277   1.237       .  S
O267       Mg286   2.161       .  S
O268       Mg280   2.310       .  S
Mg269       O285   2.289       .  S
O270       Mg286   2.276       .  S
H271        C276   1.081       .  S
O272       Mg280   2.143       .  S
O272        C275   1.239       .  S
H273        C275   1.081       .  S
H274        C277   1.081       .  S
O279       Mg286   2.278       .  S
C282        O287   1.279       .  A
C282        C920   1.468       .  S
O283        C284   1.273       .  A
C284        C859   1.474       .  S
O289       Mg291   2.124       .  S
O289       Mg297   2.129       .  S
O289        C324   1.238       .  S
C290        O303   1.235       .  S
C290        O327   1.267       .  A
C290        H329   1.081       .  S
Mg291       O320   2.154       .  S
Mg291       O335   2.337       .  S
Mg291       O331   2.249       .  S
Mg291       O302   2.314       .  S
O292       Mg334   2.155       .  S
O292       Mg317   2.143       .  S
O292        C313   1.235       .  S
O293        C324   1.272       .  A
O293       Mg317   2.301       .  S
C294        O296   1.270       .  A
C294        O308   1.277       .  A
C294        C808   1.472       .  S
O295        C323   1.273       .  A
O295       Mg297   2.304       .  S
O296       Mg328   2.248       .  S
Mg297       O303   2.104       .  S
Mg297       O311   2.210       .  S
Mg297       O299   2.266       .  S
C298        O336   1.275       .  A
C298        O304   1.275       .  A
C298        C840   1.475       .  S
O299        C306   1.270       .  A
H300        C313   1.081       .  S
C301        O315   1.237       .  S
C301        O316   1.271       .  A
C301        H326   1.081       .  S
O302        C325   1.273       .  A
O303       Mg317   2.141       .  S
O304       Mg334   2.293       .  S
C305        O318   1.275       .  A
C305        O310   1.277       .  A
C305        C760   1.471       .  S
C306        O333   1.275       .  A
C306        C728   1.469       .  S
Mg307       O314   2.166       .  S
Mg307       O315   2.159       .  S
Mg307       O308   2.328       .  S
Mg307       O309   2.293       .  S
Mg307       O336   2.294       .  S
O309        C313   1.269       .  A
O310       Mg317   2.315       .  S
O311        C330   1.264       .  A
O312        C332   1.274       .  A
O312       Mg328   2.311       .  S
O314       Mg328   2.152       .  S
O314        C325   1.237       .  S
O315       Mg334   2.156       .  S
O316       Mg328   2.304       .  S
Mg317       O333   2.308       .  S
O318       Mg334   2.269       .  S
H319        C324   1.081       .  S
O320       Mg328   2.142       .  S
O320        C323   1.239       .  S
H321        C323   1.081       .  S
H322        C325   1.081       .  S
O327       Mg334   2.282       .  S
C330        O335   1.277       .  A
C330       C1083   1.465       .  S
O331        C332   1.270       .  A
C332        C747   1.468       .  S
O337       Mg339   2.125       .  S
O337       Mg345   2.140       .  S
O337        C372   1.239       .  S
C338        O351   1.235       .  S
C338        O375   1.267       .  A
C338        H377   1.081       .  S
Mg339       O368   2.152       .  S
Mg339       O383   2.344       .  S
Mg339       O379   2.266       .  S
Mg339       O350   2.320       .  S
O340       Mg382   2.151       .  S
O340       Mg365   2.131       .  S
O340        C361   1.235       .  S
O341        C372   1.271       .  A
O341       Mg365   2.293       .  S
C342        O344   1.269       .  A
C342        O356   1.277       .  A
C342        C888   1.469       .  S
O343        C371   1.272       .  A
O343       Mg345   2.301       .  S
O344       Mg376   2.242       .  S
Mg345       O351   2.100       .  S
Mg345       O359   2.213       .  S
Mg345       O347   2.278       .  S
C346        O384   1.278       .  A
C346        O352   1.273       .  A
C346        C792   1.474       .  S
O347        C354   1.271       .  A
H348        C361   1.081       .  S
C349        O363   1.236       .  S
C349        O364   1.271       .  A
C349        H374   1.081       .  S
O350        C373   1.274       .  A
O351       Mg365   2.143       .  S
O352       Mg382   2.283       .  S
C353        O366   1.274       .  A
C353        O358   1.276       .  A
C353        C744   1.467       .  S
C354        O381   1.274       .  A
C354        C712   1.469       .  S
Mg355       O362   2.176       .  S
Mg355       O363   2.159       .  S
Mg355       O356   2.326       .  S
Mg355       O357   2.291       .  S
Mg355       O384   2.307       .  S
O357        C361   1.268       .  A
O358       Mg365   2.300       .  S
O359        C378   1.267       .  A
O360        C380   1.274       .  A
O360       Mg376   2.309       .  S
O362       Mg376   2.156       .  S
O362        C373   1.238       .  S
O363       Mg382   2.150       .  S
O364       Mg376   2.304       .  S
Mg365       O381   2.287       .  S
O366       Mg382   2.270       .  S
H367        C372   1.081       .  S
O368       Mg376   2.138       .  S
O368        C371   1.238       .  S
H369        C371   1.081       .  S
H370        C373   1.081       .  S
O375       Mg382   2.278       .  S
C378        O383   1.278       .  A
C378       C1019   1.469       .  S
O379        C380   1.272       .  A
C380        C763   1.472       .  S
O385       Mg387   2.130       .  S
O385       Mg393   2.134       .  S
O385        C420   1.239       .  S
C386        O399   1.235       .  S
C386        O423   1.268       .  A
C386        H425   1.081       .  S
Mg387       O416   2.157       .  S
Mg387       O431   2.348       .  S
Mg387       O427   2.263       .  S
Mg387       O398   2.313       .  S
O388       Mg430   2.152       .  S
O388       Mg413   2.138       .  S
O388        C409   1.236       .  S
O389        C420   1.273       .  A
O389       Mg413   2.303       .  S
C390        O392   1.269       .  A
C390        O404   1.278       .  A
C390        C696   1.470       .  S
O391        C419   1.272       .  A
O391       Mg393   2.297       .  S
O392       Mg424   2.245       .  S
Mg393       O399   2.108       .  S
Mg393       O407   2.217       .  S
Mg393       O395   2.271       .  S
C394        O432   1.275       .  A
C394        O400   1.274       .  A
C394        C683   1.471       .  S
O395        C402   1.270       .  A
H396        C409   1.081       .  S
C397        O411   1.237       .  S
C397        O412   1.272       .  A
C397        H422   1.081       .  S
O398        C421   1.272       .  A
O399       Mg413   2.136       .  S
O400       Mg430   2.294       .  S
C401        O414   1.275       .  A
C401        O406   1.277       .  A
C401        C664   1.470       .  S
C402        O429   1.274       .  A
C402        C731   1.468       .  S
Mg403       O410   2.162       .  S
Mg403       O411   2.155       .  S
Mg403       O404   2.330       .  S
Mg403       O405   2.295       .  S
Mg403       O432   2.285       .  S
O405        C409   1.270       .  A
O406       Mg413   2.312       .  S
O407        C426   1.266       .  A
O408        C428   1.276   1_554  A
O408       Mg424   2.312       .  S
O410       Mg424   2.151       .  S
O410        C421   1.237       .  S
O411       Mg430   2.153       .  S
O412       Mg424   2.306       .  S
Mg413       O429   2.300       .  S
O414       Mg430   2.271       .  S
H415        C420   1.081       .  S
O416       Mg424   2.136       .  S
O416        C419   1.239       .  S
H417        C419   1.081       .  S
H418        C421   1.081       .  S
O423       Mg430   2.283       .  S
C426        O431   1.278       .  A
C426       C1003   1.469       .  S
O427        C428   1.272   1_554  A
C428        C651   1.471       .  S
O433       Mg435   2.130       .  S
O433       Mg441   2.135       .  S
O433        C468   1.239       .  S
C434        O447   1.236       .  S
C434        O471   1.267       .  A
C434        H473   1.081       .  S
Mg435       O464   2.161       .  S
Mg435       O479   2.355       .  S
Mg435       O475   2.258       .  S
Mg435       O446   2.318       .  S
O436       Mg478   2.151       .  S
O436       Mg461   2.132       .  S
O436        C457   1.235       .  S
O437        C468   1.272       .  A
O437       Mg461   2.298       .  S
C438        O440   1.271       .  A
C438        O452   1.277       .  A
C438        C632   1.475       .  S
O439        C467   1.273       .  A
O439       Mg441   2.305       .  S
O440       Mg472   2.270       .  S
Mg441       O447   2.105       .  S
Mg441       O455   2.219       .  S
Mg441       O443   2.287       .  S
C442        O480   1.276       .  A
C442        O448   1.274       .  A
C442        C619   1.472       .  S
O443        C450   1.271       .  A
H444        C457   1.081       .  S
C445        O459   1.237       .  S
C445        O460   1.271       .  A
C445        H470   1.081       .  S
O446        C469   1.274       .  A
O447       Mg461   2.138       .  S
O448       Mg478   2.290       .  S
C449        O462   1.275       .  A
C449        O454   1.277       .  A
C449        C648   1.472       .  S
C450        O477   1.273       .  A
C450        C715   1.463       .  S
Mg451       O458   2.168       .  S
Mg451       O459   2.159       .  S
Mg451       O452   2.322       .  S
Mg451       O453   2.290       .  S
Mg451       O480   2.292       .  S
O453        C457   1.269       .  A
O454       Mg461   2.311       .  S
O455        C474   1.267       .  A
O456        C476   1.275       .  A
O456       Mg472   2.307       .  S
O458       Mg472   2.151       .  S
O458        C469   1.237       .  S
O459       Mg478   2.156       .  S
O460       Mg472   2.306       .  S
Mg461       O477   2.286       .  S
O462       Mg478   2.281       .  S
H463        C468   1.081       .  S
O464       Mg472   2.153       .  S
O464        C467   1.239       .  S
H465        C467   1.081       .  S
H466        C469   1.081       .  S
O471       Mg478   2.281       .  S
C474        O479   1.278       .  A
C474       C1064   1.473       .  S
O475        C476   1.272       .  A
C476        C667   1.469       .  S
O481       Mg483   2.126       .  S
O481       Mg489   2.133       .  S
O481        C516   1.239       .  S
C482        O495   1.235       .  S
C482        O519   1.268       .  A
C482        H521   1.081       .  S
Mg483       O512   2.153       .  S
Mg483       O527   2.341       .  S
Mg483       O523   2.256       .  S
Mg483       O494   2.315       .  S
O484       Mg526   2.155       .  S
O484       Mg509   2.136       .  S
O484        C505   1.235       .  S
O485        C516   1.272       .  A
O485       Mg509   2.301       .  S
C486        O488   1.270       .  A
C486        O500   1.276       .  A
C486        C680   1.469       .  S
O487        C515   1.273       .  A
O487       Mg489   2.301       .  S
O488       Mg520   2.253       .  S
Mg489       O495   2.113       .  S
Mg489       O503   2.224       .  S
Mg489       O491   2.270       .  S
C490        O528   1.275       .  A
C490        O496   1.275       .  A
C490        C635   1.474       .  S
O491        C498   1.269       .  A
H492        C505   1.081       .  S
C493        O507   1.237       .  S
C493        O508   1.272       .  A
C493        H518   1.081       .  S
O494        C517   1.273       .  A
O495       Mg509   2.140       .  S
O496       Mg526   2.302       .  S
C497        O510   1.275       .  A
C497        O502   1.277       .  A
C497        C587   1.472       .  S
C498        O525   1.274       .  A
C498        C776   1.464       .  S
Mg499       O506   2.167       .  S
Mg499       O507   2.158       .  S
Mg499       O500   2.319       .  S
Mg499       O501   2.293       .  S
Mg499       O528   2.289       .  S
O501        C505   1.269       .  A
O502       Mg509   2.303       .  S
O503        C522   1.266       .  A
O504        C524   1.276       .  A
O504       Mg520   2.320       .  S
O506       Mg520   2.151       .  S
O506        C517   1.237       .  S
O507       Mg526   2.157       .  S
O508       Mg520   2.308       .  S
Mg509       O525   2.294       .  S
O510       Mg526   2.283       .  S
H511        C516   1.081       .  S
O512       Mg520   2.141       .  S
O512        C515   1.239       .  S
H513        C515   1.081       .  S
H514        C517   1.081       .  S
O519       Mg526   2.285       .  S
C522        O527   1.278       .  A
C522        C939   1.469       .  S
O523        C524   1.271       .  A
C524        C603   1.471       .  S
O529       Mg531   2.129       .  S
O529       Mg537   2.144       .  S
O529        C564   1.238       .  S
C530        O543   1.236       .  S
C530        O567   1.267       .  A
C530        H569   1.081       .  S
Mg531       O560   2.157       .  S
Mg531       O575   2.336       .  S
Mg531       O571   2.275       .  S
Mg531       O542   2.315       .  S
O532       Mg574   2.145       .  S
O532       Mg557   2.125       .  S
O532        C553   1.235       .  S
O533        C564   1.271       .  A
O533       Mg557   2.290       .  S
C534        O536   1.270       .  A
C534        O548   1.277       .  A
C534        C616   1.472       .  S
O535        C563   1.273       .  A
O535       Mg537   2.305       .  S
O536       Mg568   2.262       .  S
Mg537       O543   2.105       .  S
Mg537       O551   2.227       .  S
Mg537       O539   2.291       .  S
C538        O576   1.276       .  A
C538        O544   1.272       .  A
C538        C699   1.470       .  S
O539        C546   1.273       .  A
H540        C553   1.081       .  S
C541        O555   1.237       .  S
C541        O556   1.271       .  A
C541        H566   1.081       .  S
O542        C565   1.273       .  A
O543       Mg557   2.148       .  S
O544       Mg574   2.273       .  S
C545        O558   1.274       .  A
C545        O550   1.277       .  A
C545        C600   1.471       .  S
C546        O573   1.273       .  A
C546        C827   1.465       .  S
Mg547       O554   2.166       .  S
Mg547       O555   2.163       .  S
Mg547       O548   2.319       .  S
Mg547       O549   2.287       .  S
Mg547       O576   2.300       .  S
O549        C553   1.268       .  A
O550       Mg557   2.312   1_554  S
O551        C570   1.268       .  A
O552        C572   1.274       .  A
O552       Mg568   2.299       .  S
O554       Mg568   2.152       .  S
O554        C565   1.238       .  S
O555       Mg574   2.151       .  S
O556       Mg568   2.304       .  S
Mg557       O573   2.274       .  S
O558       Mg574   2.271   1_554  S
H559        C564   1.081       .  S
O560       Mg568   2.147       .  S
O560        C563   1.239       .  S
H561        C563   1.081       .  S
H562        C565   1.081       .  S
O567       Mg574   2.279       .  S
C570        O575   1.278       .  A
C570        C907   1.469       .  S
O571        C572   1.272       .  A
C572        C584   1.472       .  S
C577        C582   1.381       .  A
C577        C578   1.404       .  A
C577        O583   1.321       .  A
C578        H589   1.082       .  S
C578        C579   1.404       .  A
C579        C588   1.361       .  A
C579        C580   1.381       .  A
C580        C581   1.403       .  A
C580        O586   1.320       .  A
C581        H590   1.082       .  S
C581        C582   1.403       .  A
C582        C585   1.360       .  A
O583        C584   1.331       .  A
C584        C585   1.392       .  A
C585        H591   1.083       .  S
O586        C587   1.331       .  A
C587        C588   1.392       .  A
C588        H592   1.083       .  S
C593        C598   1.380       .  A
C593        C594   1.403       .  A
C593        O599   1.319       .  A
C594        H605   1.082       .  S
C594        C595   1.403       .  A
C595        C604   1.361       .  A
C595        C596   1.380       .  A
C596        C597   1.403       .  A
C596        O602   1.319       .  A
C597        H606   1.082       .  S
C597        C598   1.403       .  A
C598        C601   1.361       .  A
O599        C600   1.331       .  A
C600        C601   1.392       .  A
C601        H607   1.083       .  S
O602        C603   1.331       .  A
C603        C604   1.392       .  A
C604        H608   1.083       .  S
C609        C614   1.380       .  A
C609        C610   1.407       .  A
C609        O615   1.320       .  A
C610        H621   1.082       .  S
C610        C611   1.405   1_565  A
C611        C620   1.367       .  A
C611        C612   1.380       .  A
C612        C613   1.402       .  A
C612        O618   1.316       .  A
C613        H622   1.082       .  S
C613        C614   1.400   1_545  A
C614        C617   1.361       .  A
O615        C616   1.333       .  A
C616        C617   1.390       .  A
C617        H623   1.083       .  S
O618        C619   1.330       .  A
C619        C620   1.393       .  A
C620        H624   1.082       .  S
C625        C630   1.380       .  A
C625        C626   1.407       .  A
C625        O631   1.321       .  A
C626        H637   1.082       .  S
C626        C627   1.405   1_545  A
C627        C636   1.366       .  A
C627        C628   1.380       .  A
C628        C629   1.403       .  A
C628        O634   1.318       .  A
C629        H638   1.082       .  S
C629        C630   1.402   1_565  A
C630        C633   1.363       .  A
O631        C632   1.333       .  A
C632        C633   1.392       .  A
C633        H639   1.083       .  S
O634        C635   1.331       .  A
C635        C636   1.393       .  A
C636        H640   1.082       .  S
C641        C646   1.380       .  A
C641        C642   1.404       .  A
C641        O647   1.319       .  A
C642        H653   1.082       .  S
C642        C643   1.403       .  A
C643        C652   1.362       .  A
C643        C644   1.380       .  A
C644        C645   1.404       .  A
C644        O650   1.319       .  A
C645        H654   1.082       .  S
C645        C646   1.403       .  A
C646        C649   1.362       .  A
O647        C648   1.331       .  A
C648        C649   1.392       .  A
C649        H655   1.083       .  S
O650        C651   1.331       .  A
C651        C652   1.392       .  A
C652        H656   1.083       .  S
C657        C662   1.380       .  A
C657        C658   1.404       .  A
C657        O663   1.319       .  A
C658        H669   1.082       .  S
C658        C659   1.403       .  A
C659        C668   1.362       .  A
C659        C660   1.381       .  A
C660        C661   1.402       .  A
C660        O666   1.318       .  A
C661        H670   1.082       .  S
C661        C662   1.401       .  A
C662        C665   1.360       .  A
O663        C664   1.331       .  A
C664        C665   1.391       .  A
C665        H671   1.083       .  S
O666        C667   1.330       .  A
C667        C668   1.392       .  A
C668        H672   1.082       .  S
C673        C678   1.380       .  A
C673        C674   1.404       .  A
C673        O679   1.318       .  A
C674        H685   1.082       .  S
C674        C675   1.403   1_565  A
C675        C684   1.364       .  A
C675        C676   1.380       .  A
C676        C677   1.403       .  A
C676        O682   1.317       .  A
C677        H686   1.082       .  S
C677        C678   1.401   1_545  A
C678        C681   1.363       .  A
O679        C680   1.331       .  A
C680        C681   1.391       .  A
C681        H687   1.083       .  S
O682        C683   1.331       .  A
C683        C684   1.392       .  A
C684        H688   1.082       .  S
C689        C694   1.380       .  A
C689        C690   1.405   1_554  A
C689        O695   1.317       .  A
C690        H701   1.082       .  S
C690        C691   1.403   1_545  A
C691        C700   1.367       .  A
C691        C692   1.380       .  A
C692        C693   1.403   1_556  A
C692        O698   1.315       .  A
C693        H702   1.082       .  S
C693        C694   1.400   1_565  A
C694        C697   1.364       .  A
O695        C696   1.332       .  A
C696        C697   1.391       .  A
C697        H703   1.083       .  S
O698        C699   1.331       .  A
C699        C700   1.392       .  A
C700        H704   1.082       .  S
C705        C710   1.380       .  A
C705        C706   1.403       .  A
C705        O711   1.316       .  A
C706        H717   1.082       .  S
C706        C707   1.401       .  A
C707        C716   1.364       .  A
C707        C708   1.380       .  A
C708        C709   1.405       .  A
C708        O714   1.318       .  A
C709        H718   1.082       .  S
C709        C710   1.403       .  A
C710        C713   1.365       .  A
O711        C712   1.331       .  A
C712        C713   1.392       .  A
C713        H719   1.082       .  S
O714        C715   1.331       .  A
C715        C716   1.388       .  A
C716        H720   1.082       .  S
C721        C726   1.381       .  A
C721        C722   1.402       .  A
C721        O727   1.323       .  A
C722        H733   1.082       .  S
C722        C723   1.403       .  A
C723        C732   1.357       .  A
C723        C724   1.381       .  A
C724        C725   1.402       .  A
C724        O730   1.323       .  A
C725        H734   1.082       .  S
C725        C726   1.404       .  A
C726        C729   1.357       .  A
O727        C728   1.330       .  A
C728        C729   1.392       .  A
C729        H735   1.083       .  S
O730        C731   1.330       .  A
C731        C732   1.391       .  A
C732        H736   1.083       .  S
C737        C742   1.381       .  A
C737        C738   1.402       .  A
C737        O743   1.317       .  A
C738        H749   1.082       .  S
C738        C739   1.401       .  A
C739        C748   1.360       .  A
C739        C740   1.381       .  A
C740        C741   1.403       .  A
C740        O746   1.318       .  A
C741        H750   1.082       .  S
C741        C742   1.402       .  A
C742        C745   1.361       .  A
O743        C744   1.330       .  A
C744        C745   1.391       .  A
C745        H751   1.082       .  S
O746        C747   1.330       .  A
C747        C748   1.391       .  A
C748        H752   1.083       .  S
C753        C758   1.380       .  A
C753        C754   1.404       .  A
C753        O759   1.320       .  A
C754        H765   1.082       .  S
C754        C755   1.404       .  A
C755        C764   1.363   1_554  A
C755        C756   1.380       .  A
C756        C757   1.403       .  A
C756        O762   1.319   1_554  A
C757        H766   1.082       .  S
C757        C758   1.402       .  A
C758        C761   1.360       .  A
O759        C760   1.332       .  A
C760        C761   1.391       .  A
C761        H767   1.083       .  S
O762        C763   1.331       .  A
C763        C764   1.392       .  A
C764        H768   1.082       .  S
C769        C774   1.380       .  A
C769        C770   1.402       .  A
C769        O775   1.314       .  A
C770        H781   1.082       .  S
C770        C771   1.399       .  A
C771        C780   1.364       .  A
C771        C772   1.380       .  A
C772        C773   1.405       .  A
C772        O778   1.315       .  A
C773        H782   1.082       .  S
C773        C774   1.402       .  A
C774        C777   1.366       .  A
O775        C776   1.330       .  A
C776        C777   1.390       .  A
C777        H783   1.082       .  S
O778        C779   1.331       .  A
C779        C780   1.388       .  A
C780        H784   1.082       .  S
C785        C790   1.380       .  A
C785        C786   1.404       .  A
C785        O791   1.317       .  A
C786        H797   1.082       .  S
C786        C787   1.402   1_655  A
C787        C796   1.364       .  A
C787        C788   1.380       .  A
C788        C789   1.406       .  A
C788        O794   1.318       .  A
C789        H798   1.082       .  S
C789        C790   1.404   1_455  A
C790        C793   1.367       .  A
O791        C792   1.332       .  A
C792        C793   1.392       .  A
C793        H799   1.082       .  S
O794        C795   1.332       .  A
C795        C796   1.392       .  A
C796        H800   1.083       .  S
C801        C806   1.381       .  A
C801        C802   1.403   1_655  A
C801        O807   1.321       .  A
C802        H813   1.082       .  S
C802        C803   1.403       .  A
C803        C812   1.359       .  A
C803        C804   1.381       .  A
C804        C805   1.403   1_455  A
C804        O810   1.322       .  A
C805        H814   1.082       .  S
C805        C806   1.404       .  A
C806        C809   1.360       .  A
O807        C808   1.331       .  A
C808        C809   1.393       .  A
C809        H815   1.083       .  S
O810        C811   1.331       .  A
C811        C812   1.393       .  A
C812        H816   1.083       .  S
C817        C822   1.380       .  A
C817        C818   1.403       .  A
C817        O823   1.318       .  A
C818        H829   1.082       .  S
C818        C819   1.402       .  A
C819        C828   1.362       .  A
C819        C820   1.381       .  A
C820        C821   1.404       .  A
C820        O826   1.319       .  A
C821        H830   1.082       .  S
C821        C822   1.403       .  A
C822        C825   1.363       .  A
O823        C824   1.331       .  A
C824        C825   1.391       .  A
C825        H831   1.082       .  S
O826        C827   1.331       .  A
C827        C828   1.389       .  A
C828        H832   1.082       .  S
C833        C838   1.380       .  A
C833        C834   1.405   1_655  A
C833        O839   1.322       .  A
C834        H845   1.082       .  S
C834        C835   1.405       .  A
C835        C844   1.363       .  A
C835        C836   1.381       .  A
C836        C837   1.403   1_455  A
C836        O842   1.320       .  A
C837        H846   1.082       .  S
C837        C838   1.403       .  A
C838        C841   1.360       .  A
O839        C840   1.332       .  A
C840        C841   1.392       .  A
C841        H847   1.083       .  S
O842        C843   1.331       .  A
C843        C844   1.393       .  A
C844        H848   1.083       .  S
C849        C854   1.380       .  A
C849        C850   1.405       .  A
C849        O855   1.321       .  A
C850        H861   1.082       .  S
C850        C851   1.405       .  A
C851        C860   1.362       .  A
C851        C852   1.380       .  A
C852        C853   1.403       .  A
C852        O858   1.320       .  A
C853        H862   1.082       .  S
C853        C854   1.403       .  A
C854        C857   1.360       .  A
O855        C856   1.332       .  A
C856        C857   1.392       .  A
C857        H863   1.083       .  S
O858        C859   1.331       .  A
C859        C860   1.393       .  A
C860        H864   1.082       .  S
C865        C870   1.380       .  A
C865        C866   1.404       .  A
C865        O871   1.319       .  A
C866        H877   1.082       .  S
C866        C867   1.403       .  A
C867        C876   1.363       .  A
C867        C868   1.380       .  A
C868        C869   1.404       .  A
C868        O874   1.319       .  A
C869        H878   1.082       .  S
C869        C870   1.403       .  A
C870        C873   1.362       .  A
O871        C872   1.331       .  A
C872        C873   1.392       .  A
C873        H879   1.083       .  S
O874        C875   1.331       .  A
C875        C876   1.392       .  A
C876        H880   1.083       .  S
C881        C886   1.381       .  A
C881        C882   1.399   1_655  A
C881        O887   1.319       .  A
C882        H893   1.082       .  S
C882        C883   1.400       .  A
C883        C892   1.355       .  A
C883        C884   1.381       .  A
C884        C885   1.405   1_455  A
C884        O890   1.323       .  A
C885        H894   1.082       .  S
C885        C886   1.406       .  A
C886        C889   1.361       .  A
O887        C888   1.329       .  A
C888        C889   1.393       .  A
C889        H895   1.083       .  S
O890        C891   1.332       .  A
C891        C892   1.391       .  A
C892        H896   1.083       .  S
C897        C902   1.381       .  A
C897        C898   1.402       .  A
C897        O903   1.321       .  A
C898        H909   1.082       .  S
C898        C899   1.403       .  A
C899        C908   1.357       .  A
C899        C900   1.381       .  A
C900        C901   1.400       .  A
C900        O906   1.320       .  A
C901        H910   1.082       .  S
C901        C902   1.402       .  A
C902        C905   1.355       .  A
O903        C904   1.330       .  A
C904        C905   1.392       .  A
C905        H911   1.083       .  S
O906        C907   1.329       .  A
C907        C908   1.393       .  A
C908        H912   1.083       .  S
C913        C918   1.380       .  A
C913        C914   1.400       .  A
C913        O919   1.310       .  A
C914        H925   1.082       .  S
C914        C915   1.396       .  A
C915        C924   1.361       .  A
C915        C916   1.380       .  A
C916        C917   1.409       .  A
C916        O922   1.319       .  A
C917        H926   1.082       .  S
C917        C918   1.405       .  A
C918        C921   1.373       .  A
O919        C920   1.330       .  A
C920        C921   1.393       .  A
C921        H927   1.082       .  S
O922        C923   1.333       .  A
C923        C924   1.388       .  A
C924        H928   1.083       .  S
C929        C934   1.380       .  A
C929        C930   1.405       .  A
C929        O935   1.314       .  A
C930        H941   1.082       .  S
C930        C931   1.401       .  A
C931        C940   1.367       .  A
C931        C932   1.380       .  A
C932        C933   1.404       .  A
C932        O938   1.314       .  A
C933        H942   1.082       .  S
C933        C934   1.401       .  A
C934        C937   1.367       .  A
O935        C936   1.332       .  A
C936        C937   1.390       .  A
C937        H943   1.082       .  S
O938        C939   1.331       .  A
C939        C940   1.391       .  A
C940        H944   1.082       .  S
C945        C950   1.381       .  A
C945        C946   1.406       .  A
C945        O951   1.325       .  A
C946        H957   1.082       .  S
C946        C947   1.408       .  A
C947        C956   1.362       .  A
C947        C948   1.381       .  A
C948        C949   1.397       .  A
C948        O954   1.318       .  A
C949        H958   1.082       .  S
C949        C950   1.398       .  A
C950        C953   1.351       .  A
O951        C952   1.332       .  A
C952        C953   1.389       .  A
C953        H959   1.083       .  S
O954        C955   1.328       .  A
C955        C956   1.394       .  A
C956        H960   1.083       .  S
C961        C966   1.380       .  A
C961        C962   1.405       .  A
C961        O967   1.320       .  A
C962        H973   1.082       .  S
C962        C963   1.404       .  A
C963        C972   1.363   1_556  A
C963        C964   1.380       .  A
C964        C965   1.403       .  A
C964        O970   1.318   1_556  A
C965        H974   1.082       .  S
C965        C966   1.402       .  A
C966        C969   1.361       .  A
O967        C968   1.332       .  A
C968        C969   1.391       .  A
C969        H975   1.083       .  S
O970        C971   1.331       .  A
C971        C972   1.392       .  A
C972        H976   1.082       .  S
C977        C982   1.381       .  A
C977        C978   1.402       .  A
C977        O983   1.317       .  A
C978        H989   1.082       .  S
C978        C979   1.401       .  A
C979        C988   1.360       .  A
C979        C980   1.381       .  A
C980        C981   1.402       .  A
C980        O986   1.317       .  A
C981        H990   1.082       .  S
C981        C982   1.401       .  A
C982        C985   1.360       .  A
O983        C984   1.330       .  A
C984        C985   1.391       .  A
C985        H991   1.083       .  S
O986        C987   1.330       .  A
C987        C988   1.391       .  A
C988        H992   1.083       .  S
C993        C998   1.380       .  A
C993        C994   1.410       .  A
C993        O999   1.321       .  A
C994       H1005   1.082   1_554  S
C994        C995   1.407       .  A
C995       C1004   1.372       .  A
C995        C996   1.380       .  A
C996        C997   1.399       .  A
C996       O1002   1.311       .  A
C997       H1006   1.082       .  S
C997        C998   1.396       .  A
C998       C1001   1.359       .  A
O999       C1000   1.334       .  A
C1000      C1001   1.387       .  A
C1001      H1007   1.083       .  S
O1002      C1003   1.329       .  A
C1003      C1004   1.394       .  A
C1004      H1008   1.082       .  S
C1009      C1014   1.381       .  A
C1009      C1010   1.401       .  A
C1009      O1015   1.323       .  A
C1010      H1021   1.082       .  S
C1010      C1011   1.404       .  A
C1011      C1020   1.355       .  A
C1011      C1012   1.381       .  A
C1012      C1013   1.400       .  A
C1012      O1018   1.322       .  A
C1013      H1022   1.082       .  S
C1013      C1014   1.402       .  A
C1014      C1017   1.353       .  A
O1015      C1016   1.330       .  A
C1016      C1017   1.392       .  A
C1017      H1023   1.083       .  S
O1018      C1019   1.329       .  A
C1019      C1020   1.392       .  A
C1020      H1024   1.083       .  S
C1025      C1030   1.381       .  A
C1025      C1026   1.404       .  A
C1025      O1031   1.322       .  A
C1026      H1037   1.082       .  S
C1026      C1027   1.405       .  A
C1027      C1036   1.360       .  A
C1027      C1028   1.381       .  A
C1028      C1029   1.402       .  A
C1028      O1034   1.321       .  A
C1029      H1038   1.082       .  S
C1029      C1030   1.403       .  A
C1030      C1033   1.358       .  A
O1031      C1032   1.331       .  A
C1032      C1033   1.391       .  A
C1033      H1039   1.083       .  S
O1034      C1035   1.330       .  A
C1035      C1036   1.393       .  A
C1036      H1040   1.083       .  S
C1041      C1046   1.381       .  A
C1041      C1042   1.403       .  A
C1041      O1047   1.321       .  A
C1042      H1053   1.082       .  S
C1042      C1043   1.404       .  A
C1043      C1052   1.359       .  A
C1043      C1044   1.381       .  A
C1044      C1045   1.401       .  A
C1044      O1050   1.320       .  A
C1045      H1054   1.082       .  S
C1045      C1046   1.402       .  A
C1046      C1049   1.356       .  A
O1047      C1048   1.331       .  A
C1048      C1049   1.392       .  A
C1049      H1055   1.083       .  S
O1050      C1051   1.330       .  A
C1051      C1052   1.393       .  A
C1052      H1056   1.083       .  S
C1057      C1062   1.381       .  A
C1057      C1058   1.408       .  A
C1057      O1063   1.327       .  A
C1058      H1069   1.082       .  S
C1058      C1059   1.409       .  A
C1059      C1068   1.364       .  A
C1059      C1060   1.381       .  A
C1060      C1061   1.399       .  A
C1060      O1066   1.320       .  A
C1061      H1070   1.082       .  S
C1061      C1062   1.400       .  A
C1062      C1065   1.353       .  A
O1063      C1064   1.333       .  A
C1064      C1065   1.390       .  A
C1065      H1071   1.083       .  S
O1066      C1067   1.329       .  A
C1067      C1068   1.396       .  A
C1068      H1072   1.083       .  S
C1073      C1078   1.380       .  A
C1073      C1074   1.404       .  A
C1073      O1079   1.314       .  A
C1074      H1085   1.082       .  S
C1074      C1075   1.401       .  A
C1075      C1084   1.367       .  A
C1075      C1076   1.380       .  A
C1076      C1077   1.402       .  A
C1076      O1082   1.312       .  A
C1077      H1086   1.082       .  S
C1077      C1078   1.398       .  A
C1078      C1081   1.364       .  A
O1079      C1080   1.331       .  A
C1080      C1081   1.389       .  A
C1081      H1087   1.082       .  S
O1082      C1083   1.330       .  A
C1083      C1084   1.391       .  A
C1084      H1088   1.082       .  S
C1089      C1094   1.381       .  A
C1089      C1090   1.402       .  A
C1089      O1095   1.318       .  A
C1090      H1101   1.082       .  S
C1090      C1091   1.402       .  A
C1091      C1100   1.360       .  A
C1091      C1092   1.380       .  A
C1092      C1093   1.404       .  A
C1092      O1098   1.320       .  A
C1093      H1102   1.082       .  S
C1093      C1094   1.404       .  A
C1094      C1097   1.362       .  A
O1095      C1096   1.330       .  A
C1096      C1097   1.393       .  A
C1097      H1103   1.083       .  S
O1098      C1099   1.331       .  A
C1099      C1100   1.391       .  A
C1100      H1104   1.083       .  S
C1105      C1110   1.380       .  A
C1105      C1106   1.405       .  A
C1105      O1111   1.321       .  A
C1106      H1117   1.082       .  S
C1106      C1107   1.405       .  A
C1107      C1116   1.363       .  A
C1107      C1108   1.380       .  A
C1108      C1109   1.403       .  A
C1108      O1114   1.319       .  A
C1109      H1118   1.082       .  S
C1109      C1110   1.402       .  A
C1110      C1113   1.360       .  A
O1111      C1112   1.332       .  A
C1112      C1113   1.392       .  A
C1113      H1119   1.083       .  S
O1114      C1115   1.331       .  A
C1115      C1116   1.393       .  A
C1116      H1120   1.082       .  S
C1121      C1126   1.380       .  A
C1121      C1122   1.405       .  A
C1121      O1127   1.323       .  A
C1122      H1133   1.082       .  S
C1122      C1123   1.406       .  A
C1123      C1132   1.362       .  A
C1123      C1124   1.381       .  A
C1124      C1125   1.404       .  A
C1124      O1130   1.322       .  A
C1125      H1134   1.082       .  S
C1125      C1126   1.404       .  A
C1126      C1129   1.360       .  A
O1127      C1128   1.332       .  A
C1128      C1129   1.392       .  A
C1129      H1135   1.083       .  S
O1130      C1131   1.331       .  A
C1131      C1132   1.393       .  A
C1132      H1136   1.083       .  S
C1137      C1142   1.380       .  A
C1137      C1138   1.402       .  A
C1137      O1143   1.315       .  A
C1138      H1149   1.082       .  S
C1138      C1139   1.400       .  A
C1139      C1148   1.363       .  A
C1139      C1140   1.380       .  A
C1140      C1141   1.406       .  A
C1140      O1146   1.317       .  A
C1141      H1150   1.082       .  S
C1141      C1142   1.403       .  A
C1142      C1145   1.367       .  A
O1143      C1144   1.330       .  A
C1144      C1145   1.393       .  A
C1145      H1151   1.082       .  S
O1146      C1147   1.333       .  A
C1147      C1148   1.390       .  A
C1148      H1152   1.082       .  S
