geometry optimzed in LAMMPS
_audit_creation_date              2020-11-30 
_audit_creation_method            'lammps2cif' 
_symmetry_space_group_name_H-M    'P1' 
_symmetry_Int_Tables_number       1 
_symmetry_cell_setting            triclinic 
loop_ 
_symmetry_equiv_pos_as_xyz 
  x,y,z 
_cell_length_a                    56.75085039 
_cell_length_b                    21.03286966187615 
_cell_length_c                    39.94189659463462 
_cell_angle_alpha                 90.57690628175237 
_cell_angle_beta                  89.96743359935628 
_cell_angle_gamma                 88.40476107755389 
loop_ 
_atom_site_label 
_atom_site_type_symbol 
_atom_site_fract_x 
_atom_site_fract_y 
_atom_site_fract_z 
_atom_site_charge 
N1          N  0.13278303  0.25758112  0.47221147    -0.36000
N2          N  0.11072591  0.35871485  0.43451934    -0.56600
N3          N  0.08740216  0.26290441  0.39368172    -0.36000
N4          N  0.10902097  0.16170334  0.43413075    -0.56600
C5          C  0.13857208  0.30882825  0.49089366     0.27600
C6          C  0.13758375  0.20535342  0.49077146     0.27600
C7          C  0.07416909  0.31656293  0.38785545     0.27500
C8          C  0.07361339  0.21243753  0.38708546     0.27500
C9          C  0.12696439  0.39321040  0.45073822     0.36200
C10         C  0.10087234  0.39710443  0.41127035     0.36200
C11         C  0.12463742  0.12335234  0.45032487     0.36200
C12         C  0.09910083  0.12578484  0.41009354     0.36200
C13         C  0.14670820  0.28877938  0.52190868    -0.21300
C14         C  0.14610189  0.22385041  0.52180870    -0.21300
C15         C  0.05187643  0.29983411  0.37772798    -0.21300
C16         C  0.05152895  0.23435401  0.37730549    -0.21300
C17         C  0.12737141  0.45411859  0.43786660    -0.22400
C18         C  0.11067758  0.45672263  0.41288524    -0.22400
C19         C  0.12449663  0.06247385  0.43677545    -0.22400
C20         C  0.10813388  0.06387827  0.41134082    -0.22400
C21         C  0.13971500  0.37172557  0.47892368    -0.17700
C22         C  0.13771396  0.14200617  0.47858288    -0.17700
C23         C  0.08036929  0.14703990  0.38951403    -0.17700
C24         C  0.08165541  0.38032023  0.39103783    -0.17700
H25         H  0.15325374  0.31694752  0.54244033     0.15200
H26         H  0.15211926  0.19431977  0.54219952     0.15200
H27         H  0.03717959  0.33185053  0.37254539     0.15200
H28         H  0.03651229  0.20572485  0.37188492     0.15200
H29         H  0.13800310  0.49308935  0.44629075     0.13500
H30         H  0.10602059  0.49795648  0.39801876     0.13500
H31         H  0.13463391  0.02113014  0.44493950     0.13500
H32         H  0.10322979  0.02384844  0.39583939     0.13500
H33         H  0.12965196  0.25765610  0.44657953     0.26700
H34         H  0.10534412  0.26075258  0.39918749     0.26700
O35         O  0.06259802  0.09370490  0.34244710    -0.73900
O36         O  0.01923652  0.97227136  0.30598479    -0.73900
O37         O  0.01648900  0.09749343  0.32523573    -0.73900
O38         O  0.06582069  0.96786218  0.32246564    -0.74000
O39         O  0.05706271  0.93701823  0.37384763    -0.73900
O40         O  0.00802455  0.06874077  0.37712773    -0.73900
O41         O  0.01031636  0.94238301  0.35774284    -0.73900
O42         O  0.05399453  0.06137807  0.39390659    -0.73900
Ni43       Ni  0.04139973  0.03371538  0.32220173     1.25400
Ni44       Ni  0.03194623  0.00126792  0.37742131     1.25400
C45         C  0.06500314  0.09817728  0.37436158     0.88300
C46         C  0.00785136  0.93679430  0.32596257     0.88300
C47         C  0.00436194  0.10560191  0.35202520     0.88300
C48         C  0.06986076  0.93110643  0.34740574     0.88500
O49         O  0.02002236  0.44041113  0.32412290    -0.73900
O50         O  0.07059609  0.55965921  0.32289413    -0.73900
O51         O  0.06581111  0.43547666  0.34340798    -0.73900
O52         O  0.02511192  0.56257110  0.30350558    -0.74000
O53         O  0.01481454  0.59905916  0.35419567    -0.73900
O54         O  0.05613700  0.47281468  0.39416804    -0.73900
O55         O  0.06045281  0.59580156  0.37340122    -0.73900
O56         O  0.01043263  0.47558649  0.37507898    -0.73900
Ni57       Ni  0.04584149  0.49826531  0.32172914     1.25400
Ni58       Ni  0.03507505  0.53698922  0.37600003     1.25400
C59         C  0.00683364  0.43806605  0.35013878     0.88300
C60         C  0.07355667  0.59875608  0.34737963     0.88300
C61         C  0.06726272  0.43230867  0.37537708     0.88300
C62         C  0.01350022  0.60214979  0.32219030     0.88500
N63         N  0.09786064  0.76489473  0.34376795    -0.36000
N64         N  0.13426749  0.66281216  0.33745392    -0.56600
N65         N  0.16596289  0.76410681  0.32958726    -0.36000
N66         N  0.13202259  0.86563003  0.33477414    -0.56600
C67         C  0.08771523  0.71242323  0.35667928     0.27600
C68         C  0.08657427  0.81789108  0.35656734     0.27600
C69         C  0.18031375  0.71302587  0.33444977     0.27500
C70         C  0.17918534  0.81593070  0.33187142     0.27500
C71         C  0.11453755  0.63051057  0.33117289     0.36200
C72         C  0.15206068  0.63256527  0.32062685     0.36200
C73         C  0.11161498  0.89916541  0.33063815     0.36200
C74         C  0.14902934  0.89551709  0.31754508     0.36200
C75         C  0.07018738  0.73273828  0.37891224    -0.21300
C76         C  0.06946024  0.79853757  0.37879816    -0.21300
C77         C  0.20280202  0.73280078  0.34209612    -0.21300
C78         C  0.20207486  0.79815219  0.34053393    -0.21300
C79         C  0.12019242  0.57731935  0.31133829    -0.22400
C80         C  0.14392263  0.57952519  0.30418753    -0.22400
C81         C  0.11605646  0.95302523  0.31187477    -0.22400
C82         C  0.13954670  0.94961948  0.30286689    -0.22400
C83         C  0.09229034  0.64808912  0.34527002    -0.17700
C84         C  0.08977118  0.88180009  0.34521695    -0.17700
C85         C  0.17275064  0.87262154  0.31569475    -0.17700
C86         C  0.17534711  0.65408791  0.31997101    -0.17700
H87         H  0.05847633  0.70401001  0.39327692     0.15200
H88         H  0.05712491  0.82799224  0.39303638     0.15200
H89         H  0.21859317  0.70317355  0.34446332     0.15200
H90         H  0.21717204  0.82846744  0.34145646     0.15200
H91         H  0.10880940  0.54097587  0.30200058     0.13500
H92         H  0.15402599  0.54596677  0.28882908     0.13500
H93         H  0.10399529  0.99083926  0.30448311     0.13500
H94         H  0.14835077  0.98359093  0.28751205     0.13500
H95         H  0.10967386  0.76437436  0.32373329     0.26700
H96         H  0.14996386  0.76285601  0.31676976     0.26700
C97         C  0.77600471  0.44479015  0.11112648     0.87100
C98         C  0.76309254  0.49800437  0.09251053    -0.53200
C99         C  0.77673207  0.53068272  0.07101970     0.10000
C100        C  0.80304748  0.50943623  0.07220182     0.20900
C101        C  0.78850556  0.40369302  0.08356060    -0.53900
C102        C  0.80282678  0.43863383  0.06346361     0.10100
C103        C  0.79591895  0.47719495  0.12956549    -0.53400
C104        C  0.81062977  0.50966395  0.10940723     0.10700
H105        H  0.74396517  0.50307347  0.09281553     0.15200
H106        H  0.81449474  0.53739607  0.05565077     0.00900
H107        H  0.78674851  0.35263932  0.08088606     0.15500
H108        H  0.79928644  0.47017073  0.15606713     0.15300
C109        C  0.80203685  0.05835669  0.04838652     0.87100
C110        C  0.79673357  0.99709809  0.02980562    -0.53200
C111        C  0.78625991  0.95202065  0.04843098     0.10000
C112        C  0.78512893  0.96995235  0.08618058     0.20900
C113        C  0.77871181  0.07875616  0.06652813    -0.53900
C114        C  0.77020092  0.03195782  0.08693329     0.10100
C115        C  0.81853811  0.03695362  0.07624048    -0.53400
C116        C  0.80985614  0.99228677  0.09683161     0.10700
H117        H  0.79809261  0.99388292  0.00269596     0.15200
H118        H  0.77847975  0.93119174  0.10195822     0.00900
H119        H  0.77051795  0.12581568  0.06463483     0.15500
H120        H  0.83559833  0.05768499  0.08026700     0.15300
N121        N  0.64987276  0.20585227  0.25722373    -0.36000
N122        N  0.62100472  0.30809269  0.28362909    -0.56600
N123        N  0.58922137  0.21112245  0.30755895    -0.36000
N124        N  0.61932922  0.10869385  0.28033945    -0.56600
C125        C  0.66461930  0.25474720  0.25521694     0.27600
C126        C  0.66283824  0.15236098  0.25141425     0.27600
C127        C  0.58063657  0.26475609  0.32326350     0.27500
C128        C  0.58061296  0.15958307  0.32350635     0.27500
C129        C  0.63539597  0.34191658  0.26403261     0.36200
C130        C  0.60218989  0.34622603  0.29096515     0.36200
C131        C  0.63189412  0.07406032  0.25742978     0.36200
C132        C  0.60074109  0.07385408  0.28920822     0.36200
C133        C  0.68745341  0.23184914  0.24942753    -0.21300
C134        C  0.68629311  0.16697794  0.24683948    -0.21300
C135        C  0.56635779  0.24676609  0.34947711    -0.21300
C136        C  0.56638477  0.18131561  0.34968986    -0.21300
C137        C  0.62610026  0.40253959  0.25938382    -0.22400
C138        C  0.60514358  0.40568219  0.27677184    -0.22400
C139        C  0.62175970  0.01591072  0.25222219    -0.22400
C140        C  0.60226700  0.01508475  0.27285955    -0.22400
C141        C  0.65712665  0.31843675  0.25142751    -0.17700
C142        C  0.65308079  0.09387422  0.24292119    -0.17700
C143        C  0.58330833  0.09422505  0.31293358    -0.17700
C144        C  0.58371317  0.32906559  0.31269628    -0.17700
H145        H  0.70300528  0.25923556  0.24506883     0.15200
H146        H  0.70075491  0.13471341  0.24014213     0.15200
H147        H  0.55662114  0.27704927  0.36679799     0.15200
H148        H  0.55657612  0.15365113  0.36715100     0.15200
H149        H  0.63377940  0.44065763  0.24542849     0.13500
H150        H  0.59375132  0.44755085  0.27878842     0.13500
H151        H  0.62810699  0.97758917  0.23601648     0.13500
H152        H  0.59071987  0.97540706  0.27512898     0.13500
H153        H  0.63158258  0.20937420  0.25518139     0.26700
H154        H  0.59799182  0.21014512  0.28466340     0.26700
N155        N  0.59585841  0.71214231  0.36389914    -0.36000
N156        N  0.63149522  0.61099395  0.37527474    -0.56600
N157        N  0.66279253  0.71087730  0.39178449    -0.36000
N158        N  0.62886751  0.81043993  0.38177137    -0.56600
C159        C  0.58731815  0.66018997  0.34776431     0.27600
C160        C  0.58636668  0.76559998  0.34949903     0.27600
C161        C  0.67730091  0.65964587  0.38782566     0.27500
C162        C  0.67633699  0.76241130  0.39251649     0.27500
C163        C  0.61195863  0.57591665  0.37470698     0.36200
C164        C  0.64818813  0.57745897  0.39235386     0.36200
C165        C  0.60858886  0.84548189  0.38188443     0.36200
C166        C  0.64449067  0.84163668  0.40105391     0.36200
C167        C  0.57282738  0.68105668  0.32194801    -0.21300
C168        C  0.57228489  0.74693395  0.32295462    -0.21300
C169        C  0.70028748  0.67872982  0.38422038    -0.21300
C170        C  0.69973266  0.74376845  0.38720188    -0.21300
C171        C  0.61683726  0.51779222  0.39006505    -0.22400
C172        C  0.63967591  0.51955344  0.40185115    -0.22400
C173        C  0.61179876  0.90072485  0.40081987    -0.22400
C174        C  0.63441357  0.89756910  0.41326317    -0.22400
C175        C  0.59071688  0.59552785  0.35844422    -0.17700
C176        C  0.58853384  0.82937281  0.36241769    -0.17700
C177        C  0.66820787  0.82167931  0.40521441    -0.17700
C178        C  0.67110764  0.59911971  0.39822015    -0.17700
H179        H  0.56325653  0.65234102  0.30429151     0.15200
H180        H  0.56217895  0.77696556  0.30617089     0.15200
H181        H  0.71602745  0.64858883  0.38276314     0.15200
H182        H  0.71516935  0.77250908  0.38759724     0.15200
H183        H  0.60552903  0.47769744  0.39263560     0.13500
H184        H  0.64911205  0.48207404  0.41505463     0.13500
H185        H  0.59974182  0.94034010  0.40542206     0.13500
H186        H  0.64270320  0.93328951  0.42859432     0.13500
H187        H  0.60522127  0.71089014  0.38634623     0.26700
H188        H  0.64568835  0.70954666  0.40122044     0.26700
N189        N  0.44901211  0.72021176  0.47545472    -0.36000
N190        N  0.46814826  0.81901788  0.43554623    -0.56600
N191        N  0.48749913  0.72044552  0.39069802    -0.36000
N192        N  0.46885228  0.62144663  0.43453530    -0.56600
C193        C  0.44642019  0.77182421  0.49552626     0.27600
C194        C  0.44655583  0.66856848  0.49478188     0.27600
C195        C  0.49975934  0.77213733  0.38143570     0.27500
C196        C  0.50020438  0.66775467  0.38086358     0.27500
C197        C  0.45186047  0.85374722  0.45303558     0.36200
C198        C  0.47517156  0.85553461  0.41005965     0.36200
C199        C  0.45290717  0.58720207  0.45135307     0.36200
C200        C  0.47620530  0.58558343  0.40820596     0.36200
C201        C  0.44327418  0.75257765  0.52834517    -0.21300
C202        C  0.44322024  0.68737417  0.52780805    -0.21300
C203        C  0.52011388  0.75181372  0.36508601    -0.21300
C204        C  0.52040070  0.68635530  0.36472878    -0.21300
C205        C  0.44856528  0.91304067  0.43871657    -0.22400
C206        C  0.46367909  0.91452823  0.41164364    -0.22400
C207        C  0.45019505  0.52878059  0.43580648    -0.22400
C208        C  0.46535080  0.52726130  0.40867968    -0.22400
C209        C  0.44176363  0.83346857  0.48329647    -0.17700
C210        C  0.44238340  0.60755376  0.48181859    -0.17700
C211        C  0.49403310  0.60328270  0.38568102    -0.17700
C212        C  0.49306493  0.83718662  0.38711064    -0.17700
H213        H  0.44036947  0.78175277  0.55043638     0.15200
H214        H  0.44007091  0.65778001  0.54921067     0.15200
H215        H  0.53352042  0.78137819  0.35502204     0.15200
H216        H  0.53406980  0.65561828  0.35430159     0.15200
H217        H  0.43711090  0.95170411  0.44748061     0.13500
H218        H  0.46592891  0.95420356  0.39498761     0.13500
H219        H  0.43911538  0.49071803  0.44379981     0.13500
H220        H  0.46804876  0.48798238  0.39124010     0.13500
H221        H  0.44758675  0.72061491  0.44945563     0.26700
H222        H  0.47070883  0.72099278  0.40117975     0.26700
C223        C  0.30820013  0.96875231  0.10018988     0.87100
C224        C  0.31668259  0.03194286  0.11413834    -0.53200
C225        C  0.30037151  0.06656793  0.13209607     0.10000
C226        C  0.27568069  0.03735557  0.13056749     0.20900
C227        C  0.29675361  0.93497290  0.13031047    -0.53900
C228        C  0.27952914  0.97169123  0.14613981     0.10100
C229        C  0.28769438  0.98739702  0.07757598    -0.53400
C230        C  0.27044128  0.02289145  0.09317832     0.10700
H231        H  0.33532977  0.04249200  0.11475140     0.15200
H232        H  0.26175549  0.06767047  0.14275846     0.00900
H233        H  0.30199399  0.88755635  0.13839977     0.15500
H234        H  0.28642528  0.97163727  0.05167732     0.15300
N235        N  0.47962825  0.22262893  0.33469182    -0.36000
N236        N  0.44407171  0.12603064  0.32604553    -0.56600
N237        N  0.41138426  0.23085752  0.31836769    -0.36000
N238        N  0.44465762  0.32836275  0.32625818    -0.56600
C239        C  0.48971532  0.16941533  0.34846104     0.27600
C240        C  0.49000325  0.27452389  0.34827641     0.27600
C241        C  0.39731601  0.18066967  0.32073740     0.27500
C242        C  0.39755974  0.28368762  0.32084137     0.27500
C243        C  0.46403362  0.09037384  0.32190803     0.36200
C244        C  0.42695855  0.09776867  0.30815038     0.36200
C245        C  0.46516988  0.35745580  0.32089942     0.36200
C246        C  0.42782876  0.36018207  0.30860468     0.36200
C247        C  0.50628453  0.18819132  0.37178971    -0.21300
C248        C  0.50644842  0.25379874  0.37169099    -0.21300
C249        C  0.37434507  0.20176697  0.32701778    -0.21300
C250        C  0.37451625  0.26716577  0.32722945    -0.21300
C251        C  0.45918810  0.03712823  0.30236534    -0.22400
C252        C  0.43577803  0.04270924  0.29310851    -0.22400
C253        C  0.46111796  0.40975518  0.30035039    -0.22400
C254        C  0.43750897  0.41068090  0.29215300    -0.22400
C255        C  0.48572946  0.10539129  0.33748805    -0.17700
C256        C  0.48656445  0.33853541  0.33683778    -0.17700
C257        C  0.40412372  0.34171885  0.30714067    -0.17700
C258        C  0.40352863  0.12179178  0.30607128    -0.17700
H259        H  0.51718444  0.15861232  0.38774034     0.15200
H260        H  0.51750085  0.28211701  0.38753978     0.15200
H261        H  0.35875873  0.17332033  0.32756604     0.15200
H262        H  0.35911686  0.29871817  0.32791222     0.15200
H263        H  0.47100100  0.99862265  0.29468297     0.13500
H264        H  0.42627429  0.00972451  0.27754054     0.13500
H265        H  0.47354837  0.44332912  0.29116786     0.13500
H266        H  0.42866292  0.44436283  0.27581351     0.13500
H267        H  0.46842116  0.22330848  0.31401660     0.26700
H268        H  0.42793801  0.22906623  0.30705949     0.26700
C269        C  0.26714688  0.50463370  0.10431007     0.87100
C270        C  0.28731441  0.52627749  0.08241491    -0.53200
C271        C  0.30445580  0.55706829  0.09953833     0.10000
C272        C  0.29936197  0.56443517  0.13758661     0.20900
C273        C  0.27913675  0.46427305  0.13195239    -0.53900
C274        C  0.29609343  0.49615875  0.14934890     0.10100
C275        C  0.25811531  0.56520562  0.12189845    -0.53400
C276        C  0.27444144  0.59550264  0.14082618     0.10700
H277        H  0.28858448  0.51513849  0.05585950     0.15200
H278        H  0.31315394  0.59053690  0.15133412     0.00900
H279        H  0.27452010  0.41566959  0.13729158     0.15500
H280        H  0.23938158  0.57714418  0.12332371     0.15300
O281        O  0.56400716  0.91881807  0.38060512    -0.73900
O282        O  0.51606932  0.05035027  0.36965539    -0.73900
O283        O  0.51726649  0.92805432  0.39224221    -0.73900
O284        O  0.56336252  0.04191109  0.35816013    -0.74000
O285        O  0.55586223  0.00909432  0.30630251    -0.73900
O286        O  0.51180082  0.88912303  0.34083285    -0.73900
O287        O  0.50889115  0.01310905  0.31861916    -0.73900
O288        O  0.55890549  0.88523141  0.32839963    -0.73900
Ni289      Ni  0.54042479  0.98607880  0.37691466     1.25400
Ni290      Ni  0.53358882  0.94792909  0.32167797     1.25400
C291        C  0.56952450  0.88006531  0.35666193     0.88300
C292        C  0.50446000  0.05377021  0.34217902     0.88300
C293        C  0.50772749  0.88793769  0.37245185     0.88300
C294        C  0.56678683  0.04586562  0.32650096     0.88500
O295        O  0.51938525  0.51194977  0.39082113    -0.73900
O296        O  0.56420969  0.38743675  0.35723310    -0.73900
O297        O  0.56629373  0.51152974  0.37832238    -0.73900
O298        O  0.51713315  0.38938082  0.36889271    -0.74000
O299        O  0.51018244  0.42447774  0.31753863    -0.73900
O300        O  0.56040963  0.54348227  0.32607617    -0.73900
O301        O  0.55687959  0.41883027  0.30516612    -0.73900
O302        O  0.51332820  0.54845943  0.33924940    -0.73900
Ni303      Ni  0.54201780  0.44895279  0.37559521     1.25400
Ni304      Ni  0.53494985  0.48505741  0.32014290     1.25400
C305        C  0.50938317  0.55159600  0.37091794     0.88300
C306        C  0.56744215  0.38095283  0.32565883     0.88300
C307        C  0.57154002  0.54791194  0.35389754     0.88300
C308        C  0.50556159  0.38638777  0.34137578     0.88500
N309        N  0.91126688  0.28419734  0.37361290    -0.36000
N310        N  0.94514590  0.37996251  0.36392638    -0.56600
N311        N  0.97960724  0.27565966  0.35481286    -0.36000
N312        N  0.94397366  0.18043317  0.36477324    -0.56600
C313        C  0.89809755  0.33731883  0.36863479     0.27600
C314        C  0.89725411  0.23446438  0.36870156     0.27600
C315        C  0.99090830  0.32635095  0.34189866     0.27500
C316        C  0.99031894  0.22105802  0.34293141     0.27500
C317        C  0.92789337  0.41545589  0.37916423     0.36200
C318        C  0.96499960  0.41368944  0.36533567     0.36200
C319        C  0.92616328  0.14998355  0.37968638     0.36200
C320        C  0.96345562  0.14279882  0.36784710     0.36200
C321        C  0.87560157  0.32124058  0.35869974    -0.21300
C322        C  0.87502233  0.25588792  0.35898420    -0.21300
C323        C  0.00867650  0.30329666  0.32078531    -0.21300
C324        C  0.00828870  0.23765145  0.32139441    -0.21300
C325        C  0.93640042  0.47341810  0.38917232    -0.22400
C326        C  0.95978734  0.47303837  0.37983927    -0.22400
C327        C  0.93400857  0.09158367  0.39133185    -0.22400
C328        C  0.95756031  0.08641517  0.38343222    -0.22400
C329        C  0.90440844  0.39586820  0.38245952    -0.17700
C330        C  0.90282323  0.17450911  0.38174064    -0.17700
C331        C  0.98568758  0.15779421  0.35420625    -0.17700
C332        C  0.98707718  0.39171592  0.35197565    -0.17700
H333        H  0.86069925  0.35316025  0.35411768     0.15200
H334        H  0.85962175  0.22778467  0.35466530     0.15200
H335        H  0.02124241  0.33013588  0.30685060     0.15200
H336        H  0.02055062  0.20645024  0.30806722     0.15200
H337        H  0.92662677  0.51252698  0.40092730     0.13500
H338        H  0.97117790  0.51278364  0.38337706     0.13500
H339        H  0.92373325  0.05580232  0.40342544     0.13500
H340        H  0.96855646  0.04498303  0.38852470     0.13500
H341        H  0.92708628  0.28246089  0.38691810     0.26700
H342        H  0.96739075  0.27810746  0.37427837     0.26700
N343        N  0.98906627  0.76826511  0.30593016    -0.36000
N344        N  0.97059608  0.67099804  0.26047573    -0.56600
N345        N  0.94011542  0.76680726  0.23392757    -0.36000
N346        N  0.95970604  0.86587875  0.27488178    -0.56600
C347        C  0.00359889  0.71714073  0.31171549     0.27600
C348        C  0.00122520  0.82144722  0.31358308     0.27600
C349        C  0.93944479  0.72273892  0.20905715     0.27500
C350        C  0.93064392  0.82110791  0.22170777     0.27500
C351        C  0.98135283  0.63234813  0.28281676     0.36200
C352        C  0.95713278  0.63379914  0.24085753     0.36200
C353        C  0.97110158  0.90335951  0.29667081     0.36200
C354        C  0.93971854  0.89753938  0.26588320     0.36200
C355        C  0.02495740  0.73784789  0.32351548    -0.21300
C356        C  0.02354104  0.80331454  0.32447538    -0.21300
C357        C  0.93009477  0.75070862  0.18038991    -0.21300
C358        C  0.92438334  0.81271747  0.18854951    -0.21300
C359        C  0.97510348  0.56988314  0.27696998    -0.22400
C360        C  0.95994236  0.57074040  0.25014023    -0.22400
C361        C  0.95866035  0.96066913  0.30083811    -0.22400
C362        C  0.93835864  0.95633459  0.28179076    -0.22400
C363        C  0.99836918  0.65213135  0.30620859    -0.17700
C364        C  0.99272688  0.88590412  0.31202012    -0.17700
C365        C  0.92420096  0.87446639  0.24137220    -0.17700
C366        C  0.94314949  0.65678133  0.21401480    -0.17700
H367        H  0.04029108  0.70852856  0.32923789     0.15200
H368        H  0.03751094  0.83434299  0.33165644     0.15200
H369        H  0.92688482  0.72928663  0.15623142     0.15200
H370        H  0.91580233  0.84723547  0.17236267     0.15200
H371        H  0.98112206  0.52786684  0.29024459     0.13500
H372        H  0.95219044  0.52947667  0.23869102     0.13500
H373        H  0.96349373  0.00071023  0.31637569     0.13500
H374        H  0.92474583  0.99294325  0.27898669     0.13500
H375        H  0.97133708  0.76603931  0.29964816     0.26700
H376        H  0.94261790  0.75820330  0.25931553     0.26700
C377        C  0.33413594  0.46762685  0.21697692     0.30300
C378        C  0.34947180  0.48446204  0.24306528    -0.36000
C379        C  0.36319394  0.43457835  0.25669381     0.16300
C380        C  0.36168391  0.37264017  0.24537115     0.22100
C381        C  0.34619784  0.35570843  0.21965837    -0.34100
C382        C  0.33252056  0.40543523  0.20609287     0.16200
O383        O  0.32092148  0.50704547  0.19916150    -0.26100
C384        C  0.31051503  0.46960746  0.17685534     0.06000
C385        C  0.31693048  0.40573112  0.18014101    -0.31000
O386        O  0.37608521  0.33352180  0.26123816    -0.22800
C387        C  0.38715246  0.37041283  0.28307512    -0.02800
C388        C  0.37985015  0.43405655  0.28149948    -0.17300
H389        H  0.35093554  0.53317172  0.25162859     0.20700
H390        H  0.34514923  0.30719964  0.21056685     0.19100
H391        H  0.31194915  0.36601236  0.16449030     0.19000
H392        H  0.38562599  0.47356008  0.29668771     0.14900
C393        C  0.36978557  0.11985881  0.23356243     0.30300
C394        C  0.36276999  0.14337696  0.20229553    -0.36000
C395        C  0.34021932  0.12716650  0.19146715     0.16300
C396        C  0.32563893  0.08949410  0.20986462     0.22100
C397        C  0.33247981  0.06709936  0.24162758    -0.34100
C398        C  0.35508487  0.08361486  0.25257720     0.16200
O399        O  0.38975437  0.13164280  0.24883205    -0.26100
C400        C  0.38811101  0.10245168  0.27811446     0.06000
C401        C  0.36681536  0.07178903  0.28189599    -0.31000
O402        O  0.30718549  0.07121422  0.19244310    -0.22800
C403        C  0.30986805  0.09770696  0.16251304    -0.02800
C404        C  0.32983984  0.13476564  0.16105121    -0.17300
H405        H  0.37432283  0.17135537  0.18712143     0.20700
H406        H  0.32132149  0.03699012  0.25621989     0.19100
H407        H  0.36018718  0.04894279  0.30401262     0.19000
H408        H  0.33765651  0.15508840  0.13900530     0.14900
C409        C  0.38613778  0.57546542  0.50935808     0.30300
C410        C  0.36193794  0.59031173  0.51038315    -0.36000
C411        C  0.35125428  0.58432594  0.04141952     0.16300
C412        C  0.36277036  0.56681559  0.07043338     0.22100
C413        C  0.38645848  0.54270092  0.56794116    -0.34100
C414        C  0.39790368  0.55222432  0.53705135     0.16200
O415        O  0.40044987  0.58935241  0.48467183    -0.26100
C416        C  0.42189261  0.57480203  0.49618757     0.06000
C417        C  0.42131299  0.55026301  0.52858591    -0.31000
O418        O  0.34804611  0.55929589  0.09576609    -0.22800
C419        C  0.32685937  0.57211456  0.08262087    -0.02800
C420        C  0.32794371  0.58841328  0.04897146    -0.17300
H421        H  0.35268543  0.60991940  0.48898946     0.20700
H422        H  0.39591988  0.52587489  0.58978704     0.19100
H423        H  0.43611055  0.54087474  0.54506438     0.19000
H424        H  0.31346749  0.59842896  0.03201449     0.14900
C425        C  0.35130190  0.91370409  0.04255463     0.30300
C426        C  0.36090833  0.89670364  0.51290792    -0.36000
C427        C  0.38556831  0.89061882  0.51154203     0.16300
C428        C  0.39947715  0.89090190  0.53981510     0.22100
C429        C  0.38957152  0.90471801  0.07016023    -0.34100
C430        C  0.36494482  0.91124243  0.07108947     0.16200
O431        O  0.32897109  0.92760759  0.04915051    -0.26100
C432        C  0.32822653  0.93377092  0.08239678     0.06000
C433        C  0.35006675  0.92207800  0.09736606    -0.31000
O434        O  0.42188649  0.87917739  0.53300054    -0.22800
C435        C  0.42249239  0.87081573  0.49993137    -0.02800
C436        C  0.40035538  0.87836964  0.48523152    -0.17300
H437        H  0.35015321  0.89701786  0.49053913     0.20700
H438        H  0.40011013  0.90339474  0.09273100     0.19100
H439        H  0.35476037  0.92875176  0.12340743     0.19000
H440        H  0.39550868  0.86847314  0.45953087     0.14900
C441        C  0.74924434  0.89479276  0.98669240     0.30300
C442        C  0.74155637  0.89570258  0.95345173    -0.36000
C443        C  0.71782723  0.88520009  0.44715483     0.16300
C444        C  0.70264850  0.87077979  0.47273105     0.22100
C445        C  0.71006724  0.87246378  0.50647358    -0.34100
C446        C  0.73402551  0.88536113  0.01296119     0.16200
O447        O  0.77029238  0.91040702  0.99661164    -0.26100
C448        C  0.76889324  0.91344027  0.02984567     0.06000
C449        C  0.74667380  0.89712125  0.04161655    -0.31000
O450        O  0.68204412  0.85239564  0.46129033    -0.22800
C451        C  0.68405086  0.85643765  0.42805836    -0.02800
C452        C  0.70572493  0.87872865  0.41806921    -0.17300
H453        H  0.75339044  0.90515658  0.93294171     0.20700
H454        H  0.69818214  0.86292386  0.52689874     0.19100
H455        H  0.74001228  0.90085447  0.06697691     0.19000
H456        H  0.71246200  0.88287219  0.39284759     0.14900
C457        C  0.71660871  0.05873323  0.13046439     0.30300
C458        C  0.69352168  0.08195788  0.13657280    -0.36000
C459        C  0.68318843  0.06328533  0.16687871     0.16300
C460        C  0.69483911  0.02518309  0.18982460     0.22100
C461        C  0.71767620  0.00118268  0.18345147    -0.34100
C462        C  0.72789109  0.01950968  0.15321829     0.16200
O463        O  0.73003484  0.07108030  0.10424773    -0.26100
C464        C  0.75006737  0.03876026  0.11043836     0.06000
C465        C  0.74964751  0.00640923  0.14064157    -0.31000
O466        O  0.68377109  0.02312272  0.21887677    -0.22800
C467        C  0.66445610  0.05934705  0.21449897    -0.02800
C468        C  0.66310264  0.08471766  0.18237716    -0.17300
H469        H  0.68458462  0.11429408  0.11957272     0.20700
H470        H  0.72730629  0.97279561  0.20159795     0.19100
H471        H  0.76346226  0.97719048  0.15184602     0.19000
H472        H  0.65107449  0.12188279  0.17372496     0.14900
C473        C  0.87655615  0.96195222  0.20878744     0.30300
C474        C  0.86692756  0.00952200  0.18834400    -0.36000
C475        C  0.84727711  0.99281796  0.16929099     0.16300
C476        C  0.83751795  0.93348551  0.16990914     0.22100
C477        C  0.84636160  0.88686946  0.19182176    -0.34100
C478        C  0.86603816  0.90368359  0.21110645     0.16200
O479        O  0.89773465  0.96238477  0.22259242    -0.26100
C480        C  0.90068478  0.90394035  0.23446744     0.06000
C481        C  0.88117667  0.86625038  0.22885640    -0.31000
O482        O  0.82192771  0.92519418  0.14558583    -0.22800
C483        C  0.82180416  0.98024418  0.12937517    -0.02800
C484        C  0.83681604  0.02417420  0.14382901    -0.17300
H485        H  0.87549938  0.05436602  0.18502473     0.20700
H486        H  0.83974888  0.83909126  0.19170856     0.19100
H487        H  0.88004608  0.81549821  0.23260033     0.19000
H488        H  0.84085298  0.07139755  0.13543847     0.14900
C489        C  0.85479247  0.14495190  0.43402601     0.30300
C490        C  0.83096292  0.14401004  0.44375053    -0.36000
C491        C  0.82673548  0.13755061  0.47824298     0.16300
C492        C  0.84364886  0.13219125  0.99910024     0.22100
C493        C  0.86727001  0.13622027  0.98959851    -0.34100
C494        C  0.87260533  0.13996219  0.45732823     0.16200
O495        O  0.86297860  0.15205001  0.40338799    -0.26100
C496        C  0.88635164  0.15035482  0.40716340     0.06000
C497        C  0.89319773  0.14253934  0.44031723    -0.31000
O498        O  0.83651903  0.11572969  0.02890794    -0.22800
C499        C  0.81369610  0.10468250  0.02521439    -0.02800
C500        C  0.80572411  0.11791580  0.99283434    -0.17300
H501        H  0.81679966  0.14570075  0.42562322     0.20700
H502        H  0.88146540  0.13291695  0.00764375     0.19100
H503        H  0.91076562  0.14438695  0.45076819     0.19000
H504        H  0.78957212  0.11378935  0.48432382     0.14900
C505        C  0.69273502  0.36354426  0.18624894     0.30300
C506        C  0.70323186  0.35312887  0.15478657    -0.36000
C507        C  0.72589587  0.37664239  0.15087642     0.16300
C508        C  0.73732173  0.40847338  0.17616517     0.22100
C509        C  0.72679574  0.41910195  0.20759945    -0.34100
C510        C  0.70410590  0.39566547  0.21151731     0.16200
O511        O  0.67294419  0.33916131  0.19644273    -0.29700
C512        C  0.67136588  0.35628183  0.22855342     0.06000
C513        C  0.69020818  0.39211965  0.23927639    -0.31000
O514        O  0.75761222  0.43049459  0.16635864    -0.22800
C515        C  0.75938998  0.41248160  0.13435777    -0.02800
C516        C  0.74016247  0.37821353  0.12345817    -0.17300
H517        H  0.69448056  0.32754395  0.13493866     0.20700
H518        H  0.73571509  0.44377898  0.22761390     0.19100
H519        H  0.69453181  0.40602026  0.26465309     0.19000
H520        H  0.73623801  0.36254576  0.09822718     0.14900
C521        C  0.74756424  0.54966407  0.99504175     0.30300
C522        C  0.74212808  0.52914515  0.46009486    -0.36000
C523        C  0.71923443  0.54852143  0.45018473     0.16300
C524        C  0.70476813  0.58648039  0.47018481     0.22100
C525        C  0.71079317  0.61031355  0.00429047    -0.34100
C526        C  0.73331113  0.58945540  0.01439791     0.16200
O527        O  0.76666048  0.52987584  0.01129212    -0.26100
C528        C  0.76470130  0.55782153  0.04134191     0.06000
C529        C  0.74438445  0.59614087  0.04433509    -0.31000
O530        O  0.68466161  0.60186774  0.45559689    -0.22800
C531        C  0.68589784  0.57334594  0.42571553    -0.02800
C532        C  0.70712444  0.53934532  0.42094326    -0.17300
H533        H  0.75321462  0.49823902  0.44458195     0.20700
H534        H  0.69967449  0.64082789  0.01998229     0.19100
H535        H  0.73733419  0.61884871  0.06678119     0.19000
H536        H  0.71363544  0.51696471  0.39811389     0.14900
C537        C  0.86183372  0.53159857  0.15654040     0.30300
C538        C  0.87510935  0.53033390  0.18600376    -0.36000
C539        C  0.89703916  0.55859506  0.18447735     0.16300
C540        C  0.90559712  0.58544314  0.15573697     0.22100
C541        C  0.89247117  0.58520257  0.12578226    -0.34100
C542        C  0.87018047  0.55776579  0.12748127     0.16200
O543        O  0.84009325  0.51284445  0.15371301    -0.26100
C544        C  0.83405674  0.52689714  0.12243997     0.06000
C545        C  0.85219614  0.55464554  0.10465295    -0.31000
O546        O  0.92470170  0.61815451  0.16155032    -0.22800
C547        C  0.92832471  0.61252987  0.19440070    -0.02800
C548        C  0.91171108  0.57516120  0.20971764    -0.17300
H549        H  0.86812302  0.51225584  0.20915251     0.20700
H550        H  0.89849811  0.60859826  0.10346919     0.19100
H551        H  0.85207856  0.57095468  0.07904980     0.19000
H552        H  0.90902035  0.56828660  0.23625849     0.14900
C553        C  0.85788725  0.41902975  0.43872302     0.30300
C554        C  0.83509018  0.40648037  0.45019246    -0.36000
C555        C  0.83137178  0.40825963  0.98589989     0.16300
C556        C  0.84939415  0.41763249  0.00839563     0.22100
C557        C  0.87261747  0.42647116  0.99760065    -0.34100
C558        C  0.87601814  0.43045129  0.46066640     0.16200
O559        O  0.86514885  0.41442725  0.40747164    -0.26100
C560        C  0.88834711  0.42255726  0.40898538     0.06000
C561        C  0.89594375  0.43392282  0.44169990    -0.31000
O562        O  0.84176975  0.42208118  0.03948084    -0.22800
C563        C  0.81864361  0.41394794  0.03706967    -0.02800
C564        C  0.81118350  0.40506970  0.00426901    -0.17300
H565        H  0.82079764  0.39690397  0.43310466     0.20700
H566        H  0.88690913  0.43334536  0.01508535     0.19100
H567        H  0.91389018  0.43547951  0.45076413     0.19000
H568        H  0.79326414  0.40402109  0.99505056     0.14900
C569        C  0.24144366  0.96585885  0.21530312     0.30300
C570        C  0.22498393  0.99136556  0.23853642    -0.36000
C571        C  0.21265001  0.94716568  0.25738865     0.16300
C572        C  0.21646431  0.88253629  0.25352264     0.22100
C573        C  0.23322006  0.85704016  0.23079965    -0.34100
C574        C  0.24550524  0.90116705  0.21193404     0.16200
O575        O  0.25349690  0.99829336  0.19345491    -0.26100
C576        C  0.26560952  0.95413834  0.17589981     0.06000
C577        C  0.26152717  0.89260300  0.18654800    -0.31000
O578        O  0.20276191  0.84969489  0.27294853    -0.22800
C579        C  0.18987282  0.89331978  0.28984346    -0.02800
C580        C  0.19539555  0.95525596  0.28125097    -0.17300
H581        H  0.22160767  0.04207894  0.24107977     0.20700
H582        H  0.23610180  0.80625502  0.22758556     0.19100
H583        H  0.26823785  0.84815356  0.17592060     0.19000
H584        H  0.18834050  0.99958976  0.29151663     0.14900
C585        C  0.20773666  0.65231602  0.24630829     0.30300
C586        C  0.21311230  0.67461284  0.21439279    -0.36000
C587        C  0.23576733  0.65934091  0.20243756     0.16300
C588        C  0.25199516  0.62350939  0.22035720     0.22100
C589        C  0.24686569  0.60302293  0.25297444    -0.34100
C590        C  0.22411021  0.61864437  0.26505861     0.16200
O591        O  0.18771649  0.66259105  0.26226219    -0.26100
C592        C  0.19104096  0.63530744  0.29182385     0.06000
C593        C  0.21347102  0.60723166  0.29508587    -0.31000
O594        O  0.27010813  0.60405232  0.20170893    -0.22800
C595        C  0.26547059  0.62805511  0.17155011    -0.02800
C596        C  0.24469735  0.66497224  0.17113465    -0.17300
H597        H  0.20022276  0.70046421  0.19945206     0.20700
H598        H  0.25930348  0.57434693  0.26725609     0.19100
H599        H  0.22131479  0.58594696  0.31712954     0.19000
H600        H  0.23549186  0.68362375  0.14945362     0.14900
C601        C  0.17674221  0.44513519  0.53597597     0.30300
C602        C  0.18531552  0.45557267  0.56845113    -0.36000
C603        C  0.21188653  0.44684531  0.07315237     0.16300
C604        C  0.22581028  0.45131016  0.04500398     0.22100
C605        C  0.21576381  0.45530048  0.51116738    -0.34100
C606        C  0.19156068  0.44474807  0.50856524     0.16200
O607        O  0.15538905  0.42684783  0.52830942    -0.26100
C608        C  0.15654442  0.41409275  0.49564058     0.06000
C609        C  0.17854683  0.42537358  0.48195544    -0.31000
O610        O  0.24750569  0.46749893  0.05218490    -0.22800
C611        C  0.24757893  0.47315313  0.08541657    -0.02800
C612        C  0.22598266  0.45924624  0.09983321    -0.17300
H613        H  0.17693041  0.43213213  0.09378039     0.20700
H614        H  0.22727285  0.45413191  0.48954163     0.19100
H615        H  0.18479074  0.41338330  0.45700558     0.19000
H616        H  0.22089901  0.46355646  0.12590393     0.14900
C617        C  0.21239734  0.04212039  0.06308059     0.30300
C618        C  0.18758851  0.04197067  0.06370867    -0.36000
C619        C  0.17739383  0.05901671  0.53313531     0.16300
C620        C  0.18995186  0.06859603  0.50408950     0.22100
C621        C  0.21456169  0.06282948  0.50339616    -0.34100
C622        C  0.22432996  0.05290386  0.03367844     0.16200
O623        O  0.22685801  0.03341456  0.08876478    -0.26100
C624        C  0.24823462  0.03871953  0.07534874     0.06000
C625        C  0.24758441  0.05098590  0.04122591    -0.31000
O626        O  0.17674129  0.09196639  0.47986432    -0.22800
C627        C  0.15532281  0.09713494  0.49320195    -0.02800
C628        C  0.15452643  0.07557996  0.52607697    -0.17300
H629        H  0.17788178  0.03536225  0.08668508     0.20700
H630        H  0.22457739  0.07185404  0.48094952     0.19100
H631        H  0.26224958  0.05639840  0.02424336     0.19000
H632        H  0.14001135  0.08051187  0.54359054     0.14900
N633        N  0.13126959  0.25000751  0.97359105    -0.36000
N634        N  0.11061593  0.35348034  0.93656494    -0.56600
N635        N  0.08756483  0.26029069  0.89371297    -0.36000
N636        N  0.10789827  0.15688364  0.93360839    -0.56600
C637        C  0.13609506  0.30034532  0.99348865     0.27600
C638        C  0.13406730  0.19714381  0.99232979     0.27600
C639        C  0.07466928  0.31453602  0.88795764     0.27500
C640        C  0.07380408  0.21046404  0.88563079     0.27500
C641        C  0.12715766  0.38608423  0.95331455     0.36200
C642        C  0.10129843  0.39321977  0.91349770     0.36200
C643        C  0.12340008  0.11786869  0.94954888     0.36200
C644        C  0.09890952  0.12281278  0.90813604     0.36200
C645        C  0.14139770  0.27918507  0.02547889    -0.21300
C646        C  0.14013584  0.21430392  0.02471863    -0.21300
C647        C  0.05266925  0.29874357  0.87614408    -0.21300
C648        C  0.05212749  0.23333728  0.87477443    -0.21300
C649        C  0.12835316  0.44720632  0.94089577    -0.22400
C650        C  0.11174481  0.45193997  0.91576798    -0.22400
C651        C  0.12425103  0.05845129  0.93425652    -0.22400
C652        C  0.10847130  0.06138409  0.90808088    -0.22400
C653        C  0.13908845  0.36283203  0.98188897    -0.17700
C654        C  0.13516295  0.13455176  0.97925073    -0.17700
C655        C  0.08025705  0.14481559  0.88771262    -0.17700
C656        C  0.08221162  0.37802408  0.89255014    -0.17700
H657        H  0.14622215  0.30650256  0.04729870     0.15200
H658        H  0.14399482  0.18386565  0.04571043     0.15200
H659        H  0.03826577  0.33126467  0.87035346     0.15200
H660        H  0.03724683  0.20528748  0.86793817     0.15200
H661        H  0.13932137  0.48505526  0.94985170     0.13500
H662        H  0.10762278  0.49388026  0.90116131     0.13500
H663        H  0.13452115  0.01693650  0.94185203     0.13500
H664        H  0.10423441  0.02264310  0.89127438     0.13500
H665        H  0.13030099  0.25087677  0.94757322     0.26700
H666        H  0.10531046  0.25744443  0.90031838     0.26700
O667        O  0.06204301  0.09103016  0.84109951    -0.73900
O668        O  0.01868356  0.96795228  0.80601948    -0.73900
O669        O  0.01578626  0.09378570  0.82441689    -0.73900
O670        O  0.06548548  0.96487303  0.82220702    -0.74000
O671        O  0.05686016  0.93573623  0.87396546    -0.73900
O672        O  0.00736108  0.06584274  0.87647582    -0.73900
O673        O  0.01001806  0.93916089  0.85803731    -0.73900
O674        O  0.05347863  0.06035017  0.89286812    -0.73900
Ni675      Ni  0.04083350  0.03023902  0.82157724     1.25400
Ni676      Ni  0.03153757  0.99921736  0.87710427     1.25400
C677        C  0.06455200  0.09634361  0.87295448     0.88300
C678        C  0.00738954  0.93283368  0.82630791     0.88300
C679        C  0.00362720  0.10211443  0.85118340     0.88300
C680        C  0.06966162  0.92924841  0.84757307     0.88500
O681        O  0.02044654  0.43613586  0.82619761    -0.73900
O682        O  0.07054263  0.55682709  0.82358509    -0.73900
O683        O  0.06638769  0.43313996  0.84498185    -0.73900
O684        O  0.02509607  0.55805213  0.80454643    -0.74000
O685        O  0.01484930  0.59558734  0.85503814    -0.73900
O686        O  0.05694252  0.47139796  0.89563209    -0.73900
O687        O  0.06044563  0.59402836  0.87389848    -0.73900
O688        O  0.01105833  0.47225471  0.87699541    -0.73900
Ni689      Ni  0.04606235  0.49471099  0.82309640     1.25400
Ni690      Ni  0.03543275  0.53449404  0.87718915     1.25400
C691        C  0.00739030  0.43405841  0.85237141     0.88300
C692        C  0.07333764  0.59686102  0.84768394     0.88300
C693        C  0.06808424  0.43069764  0.87694204     0.88300
C694        C  0.01353226  0.59810940  0.82299405     0.88500
N695        N  0.09754637  0.76351335  0.84440159    -0.36000
N696        N  0.13373939  0.66062218  0.83850456    -0.56600
N697        N  0.16573777  0.76189502  0.83240359    -0.36000
N698        N  0.13210077  0.86402422  0.83724101    -0.56600
C699        C  0.08705458  0.71104425  0.85670453     0.27600
C700        C  0.08615192  0.81640765  0.85704507     0.27600
C701        C  0.17979875  0.71018012  0.83720140     0.27500
C702        C  0.17913109  0.81327512  0.83556664     0.27500
C703        C  0.11388040  0.63010526  0.83071693     0.36200
C704        C  0.15150309  0.63145211  0.82116272     0.36200
C705        C  0.11180125  0.89780469  0.83254198     0.36200
C706        C  0.14946523  0.89402045  0.82078967     0.36200
C707        C  0.06915473  0.73128041  0.87836316    -0.21300
C708        C  0.06856929  0.79704531  0.87850646    -0.21300
C709        C  0.20222844  0.72901415  0.84581366    -0.21300
C710        C  0.20179966  0.79445557  0.84483731    -0.21300
C711        C  0.11932731  0.57927224  0.80917569    -0.22400
C712        C  0.14316600  0.58096928  0.80274362    -0.22400
C713        C  0.11660431  0.95197872  0.81431331    -0.22400
C714        C  0.14025960  0.94853526  0.80611052    -0.22400
C715        C  0.09170353  0.64694620  0.84506535    -0.17700
C716        C  0.08965143  0.88027845  0.84604295    -0.17700
C717        C  0.17318832  0.87060020  0.81954507    -0.17700
C718        C  0.17488461  0.65222688  0.82156817    -0.17700
H719        H  0.05702513  0.70263377  0.89203718     0.15200
H720        H  0.05598769  0.82646725  0.89232811     0.15200
H721        H  0.21786343  0.69881905  0.84832423     0.15200
H722        H  0.21702141  0.82422000  0.84649080     0.15200
H723        H  0.10769679  0.54535220  0.79802294     0.13500
H724        H  0.15317342  0.54904250  0.78635406     0.13500
H725        H  0.10461067  0.98988565  0.80678421     0.13500
H726        H  0.14929097  0.98271762  0.79119867     0.13500
H727        H  0.10967649  0.76317679  0.82481649     0.26700
H728        H  0.14997950  0.76149741  0.81905068     0.26700
C729        C  0.77637436  0.44690948  0.60966299     0.87100
C730        C  0.76389192  0.49904542  0.58979232    -0.53200
C731        C  0.77794977  0.53037465  0.56824960     0.10000
C732        C  0.80419429  0.50872647  0.57041736     0.20900
C733        C  0.78917021  0.40394594  0.58302858    -0.53900
C734        C  0.80390257  0.43747405  0.56273468     0.10100
C735        C  0.79613834  0.48006235  0.62804120    -0.53400
C736        C  0.81126238  0.51093930  0.60779706     0.10700
H737        H  0.74478217  0.50465199  0.58963007     0.15200
H738        H  0.81592811  0.53556505  0.55374018     0.00900
H739        H  0.78722171  0.35286591  0.58100915     0.15500
H740        H  0.79910549  0.47450267  0.65473947     0.15300
C741        C  0.80253907  0.06067443  0.54966384     0.87100
C742        C  0.79645935  0.00097028  0.53023672    -0.53200
C743        C  0.78564888  0.95574498  0.54831958     0.10000
C744        C  0.78476868  0.97191138  0.58634735     0.20900
C745        C  0.77952353  0.08208533  0.56817994    -0.53900
C746        C  0.77055002  0.03510256  0.58799237     0.10100
C747        C  0.81890594  0.03654871  0.57713190    -0.53400
C748        C  0.80977475  0.99181537  0.59727476     0.10700
H749        H  0.79771949  0.99895094  0.50309169     0.15200
H750        H  0.77769720  0.93297310  0.60159564     0.00900
H751        H  0.77189976  0.12990877  0.56703655     0.15500
H752        H  0.83614884  0.05598936  0.58148765     0.15300
N753        N  0.65099577  0.21086479  0.76017176    -0.36000
N754        N  0.62164328  0.31278032  0.78522795    -0.56600
N755        N  0.59000126  0.21497388  0.80943076    -0.36000
N756        N  0.62064644  0.11277721  0.78333418    -0.56600
C757        C  0.66549721  0.26016227  0.75746406     0.27600
C758        C  0.66420286  0.15756686  0.75510619     0.27600
C759        C  0.58120612  0.26861242  0.82491618     0.27500
C760        C  0.58134201  0.16340516  0.82533411     0.27500
C761        C  0.63581365  0.34643045  0.76513098     0.36200
C762        C  0.60258907  0.35030589  0.79230791     0.36200
C763        C  0.63341766  0.07864950  0.76044399     0.36200
C764        C  0.60191587  0.07786664  0.79153022     0.36200
C765        C  0.68844634  0.23782697  0.75209452    -0.21300
C766        C  0.68760244  0.17277060  0.75046944    -0.21300
C767        C  0.56676021  0.25050269  0.85095195    -0.21300
C768        C  0.56688919  0.18508657  0.85126085    -0.21300
C769        C  0.62612555  0.40642468  0.75991004    -0.22400
C770        C  0.60519923  0.40934551  0.77746722    -0.22400
C771        C  0.62329328  0.02067946  0.75461970    -0.22400
C772        C  0.60358144  0.01945540  0.77483585    -0.22400
C773        C  0.65763705  0.32321143  0.75247978    -0.17700
C774        C  0.65463916  0.09904291  0.74626200    -0.17700
C775        C  0.58416124  0.09804995  0.81483843    -0.17700
C776        C  0.58412256  0.33293555  0.81416945    -0.17700
H777        H  0.70382188  0.26562021  0.74720705     0.15200
H778        H  0.70216242  0.14066492  0.74396534     0.15200
H779        H  0.55675259  0.28055261  0.86807110     0.15200
H780        H  0.55696280  0.15745849  0.86860410     0.15200
H781        H  0.63352018  0.44429616  0.74545571     0.13500
H782        H  0.59356173  0.45077716  0.77905228     0.13500
H783        H  0.62974742  0.98279128  0.73821497     0.13500
H784        H  0.59195370  0.97984036  0.77651430     0.13500
H785        H  0.63273090  0.21363676  0.75778362     0.26700
H786        H  0.59891679  0.21396426  0.78667511     0.26700
N787        N  0.59472941  0.71530941  0.86668330    -0.36000
N788        N  0.63023026  0.61426813  0.87799180    -0.56600
N789        N  0.66182630  0.71392028  0.89355341    -0.36000
N790        N  0.62820425  0.81370639  0.88355434    -0.56600
C791        C  0.58622966  0.66340028  0.85047840     0.27600
C792        C  0.58563981  0.76871078  0.85179740     0.27600
C793        C  0.67617415  0.66240711  0.88956896     0.27500
C794        C  0.67547052  0.76525887  0.89376349     0.27500
C795        C  0.61061344  0.57953596  0.87788663     0.36200
C796        C  0.64689543  0.58103013  0.89523234     0.36200
C797        C  0.60778658  0.84799967  0.88441122     0.36200
C798        C  0.64376824  0.84426324  0.90318806     0.36200
C799        C  0.57217954  0.68421986  0.82420777    -0.21300
C800        C  0.57188697  0.75007192  0.82493692    -0.21300
C801        C  0.69916072  0.68102265  0.88535989    -0.21300
C802        C  0.69877144  0.74614654  0.88797062    -0.21300
C803        C  0.61536056  0.52198126  0.89387864    -0.22400
C804        C  0.63824971  0.52373379  0.90545989    -0.22400
C805        C  0.61074592  0.90201318  0.90440456    -0.22400
C806        C  0.63346516  0.89897987  0.91654624    -0.22400
C807        C  0.58952540  0.59880378  0.86119025    -0.17700
C808        C  0.58793500  0.83249716  0.86446137    -0.17700
C809        C  0.66755321  0.82455869  0.90671487    -0.17700
C810        C  0.66991656  0.60231447  0.90052116    -0.17700
H811        H  0.56297631  0.65549608  0.80615212     0.15200
H812        H  0.56237499  0.78013491  0.80751043     0.15200
H813        H  0.71481347  0.65055986  0.88378325     0.15200
H814        H  0.71428087  0.77459480  0.88787460     0.15200
H815        H  0.60394862  0.48227110  0.89702333     0.13500
H816        H  0.64763610  0.48658816  0.91898164     0.13500
H817        H  0.59838771  0.94045968  0.91007691     0.13500
H818        H  0.64162011  0.93384482  0.93257358     0.13500
H819        H  0.60391487  0.71421193  0.88929058     0.26700
H820        H  0.64482585  0.71296367  0.90340437     0.26700
N821        N  0.44994102  0.72820594  0.97582286    -0.36000
N822        N  0.46815350  0.82470895  0.93408700    -0.56600
N823        N  0.48653332  0.72396098  0.88923356    -0.36000
N824        N  0.46915629  0.62731723  0.93526156    -0.56600
C825        C  0.44773575  0.78071006  0.99530398     0.27600
C826        C  0.44822652  0.67751439  0.99595964     0.27600
C827        C  0.49809756  0.77535489  0.87785154     0.27500
C828        C  0.49842676  0.67078629  0.87810812     0.27500
C829        C  0.45212411  0.86030367  0.95158802     0.36200
C830        C  0.47472955  0.85993058  0.90789387     0.36200
C831        C  0.45371964  0.59391697  0.95347483     0.36200
C832        C  0.47609808  0.58969536  0.90937061     0.36200
C833        C  0.44561132  0.76310958  0.02853822    -0.21300
C834        C  0.44578322  0.69788684  0.02890637    -0.21300
C835        C  0.51688684  0.75430242  0.85828864    -0.21300
C836        C  0.51709438  0.68888246  0.85842350    -0.21300
C837        C  0.44857517  0.91885511  0.93658943    -0.22400
C838        C  0.46327376  0.91901234  0.90906054    -0.22400
C839        C  0.45096750  0.53427093  0.93933202    -0.22400
C840        C  0.46555614  0.53110782  0.91162292    -0.22400
C841        C  0.44250806  0.84146330  0.98239523    -0.17700
C842        C  0.44372122  0.61604888  0.98395682    -0.17700
C843        C  0.49303742  0.60637939  0.88521841    -0.17700
C844        C  0.49222771  0.84072426  0.88456383    -0.17700
H845        H  0.44328443  0.79340437  0.05034666     0.15200
H846        H  0.44340746  0.66937431  0.05091997     0.15200
H847        H  0.52924543  0.78320105  0.84537586     0.15200
H848        H  0.52970647  0.65807394  0.84568425     0.15200
H849        H  0.43725707  0.95793517  0.94518869     0.13500
H850        H  0.46524871  0.95783086  0.89177132     0.13500
H851        H  0.44024159  0.49652130  0.94862505     0.13500
H852        H  0.46799857  0.49066127  0.89487300     0.13500
H853        H  0.44769403  0.72723050  0.94993584     0.26700
H854        H  0.47076270  0.72501782  0.90246485     0.26700
C855        C  0.30819665  0.96033691  0.60249817     0.87100
C856        C  0.31667646  0.02393073  0.61593050    -0.53200
C857        C  0.30025384  0.05935572  0.63329812     0.10000
C858        C  0.27557136  0.03035856  0.63180235     0.20900
C859        C  0.29654626  0.92783680  0.63284403    -0.53900
C860        C  0.27926594  0.96527843  0.64812575     0.10100
C861        C  0.28783948  0.97840130  0.57947751    -0.53400
C862        C  0.27061020  0.01483331  0.59447709     0.10700
H863        H  0.33533396  0.03432449  0.61672522     0.15200
H864        H  0.26162528  0.06125543  0.64354571     0.00900
H865        H  0.30175877  0.88080969  0.64154643     0.15500
H866        H  0.28674232  0.96212776  0.55364891     0.15300
N867        N  0.47917598  0.22498683  0.83392075    -0.36000
N868        N  0.44393603  0.12746235  0.82526392    -0.56600
N869        N  0.41114535  0.23134682  0.81490259    -0.36000
N870        N  0.44436352  0.32893398  0.82306584    -0.56600
C871        C  0.48938540  0.17199664  0.84773028     0.27600
C872        C  0.48940625  0.27706423  0.84755804     0.27600
C873        C  0.39710941  0.18134302  0.81860670     0.27500
C874        C  0.39726697  0.28420216  0.81632423     0.27500
C875        C  0.46391297  0.09165706  0.82176399     0.36200
C876        C  0.42678494  0.09730340  0.80839073     0.36200
C877        C  0.46464295  0.36027953  0.81987559     0.36200
C878        C  0.42759788  0.36153544  0.80564860     0.36200
C879        C  0.50586443  0.19100404  0.87111580    -0.21300
C880        C  0.50584903  0.25655802  0.87105762    -0.21300
C881        C  0.37410009  0.20283707  0.82425204    -0.21300
C882        C  0.37420572  0.26812991  0.82281384    -0.21300
C883        C  0.45904901  0.03653426  0.80377016    -0.22400
C884        C  0.43558654  0.04092328  0.79474143    -0.22400
C885        C  0.46041435  0.41490244  0.80108784    -0.22400
C886        C  0.43702978  0.41487768  0.79159494    -0.22400
C887        C  0.48563125  0.10790137  0.83680624    -0.17700
C888        C  0.48593826  0.34112898  0.83616013    -0.17700
C889        C  0.40402677  0.34229462  0.80296785    -0.17700
C890        C  0.40335751  0.12094522  0.80581881    -0.17700
H891        H  0.51684779  0.16160183  0.88704486     0.15200
H892        H  0.51685161  0.28492117  0.88694653     0.15200
H893        H  0.35855441  0.17434726  0.82566302     0.15200
H894        H  0.35881732  0.29973246  0.82307126     0.15200
H895        H  0.47086971  0.99729723  0.79719428     0.13500
H896        H  0.42603422  0.00632541  0.78026760     0.13500
H897        H  0.47255136  0.45116844  0.79426560     0.13500
H898        H  0.42805284  0.45028892  0.77641049     0.13500
H899        H  0.46806198  0.22531292  0.81315097     0.26700
H900        H  0.42778809  0.22888038  0.80386481     0.26700
C901        C  0.26549862  0.51468547  0.60425962     0.87100
C902        C  0.28624057  0.53356773  0.58279595    -0.53200
C903        C  0.30391383  0.56135413  0.60021417     0.10000
C904        C  0.29861927  0.56914373  0.63829504     0.20900
C905        C  0.27649038  0.47223612  0.63191764    -0.53900
C906        C  0.29393569  0.50140186  0.64969754     0.10100
C907        C  0.25753256  0.57619168  0.62187750    -0.53400
C908        C  0.27418195  0.60349159  0.64153681     0.10700
H909        H  0.28748205  0.52257649  0.55621685     0.15200
H910        H  0.31283755  0.59297753  0.65232580     0.00900
H911        H  0.27096066  0.42425892  0.63692758     0.15500
H912        H  0.23900147  0.59052543  0.62297297     0.15300
O913        O  0.56359885  0.92273139  0.88151022    -0.73900
O914        O  0.51565422  0.05317043  0.86934756    -0.73900
O915        O  0.51671291  0.93064533  0.89112548    -0.73900
O916        O  0.56318181  0.04588427  0.85929960    -0.74000
O917        O  0.55686896  0.01289069  0.80714731    -0.73900
O918        O  0.51185599  0.89335476  0.83925794    -0.73900
O919        O  0.50961800  0.01742920  0.81766702    -0.73900
O920        O  0.55920296  0.88883366  0.82921011    -0.73900
Ni921      Ni  0.54000639  0.98942503  0.87706981     1.25400
Ni922      Ni  0.53417317  0.95197178  0.82143327     1.25400
C923        C  0.56931243  0.88363798  0.85786625     0.88300
C924        C  0.50456092  0.05704842  0.84149615     0.88300
C925        C  0.50736540  0.89123537  0.87070785     0.88300
C926        C  0.56734196  0.04972476  0.82779275     0.88500
O927        O  0.51814864  0.51443929  0.89100135    -0.73900
O928        O  0.56356095  0.39024074  0.85832214    -0.73900
O929        O  0.56514738  0.51395510  0.87995404    -0.73900
O930        O  0.51617420  0.39195011  0.86886966    -0.74000
O931        O  0.51007210  0.42641524  0.81718637    -0.73900
O932        O  0.55979414  0.54667561  0.82774121    -0.73900
O933        O  0.55706725  0.42223157  0.80617453    -0.73900
O934        O  0.51248870  0.55024687  0.83923315    -0.73900
Ni935      Ni  0.54098805  0.45141919  0.87630343     1.25400
Ni936      Ni  0.53463288  0.48760687  0.82071898     1.25400
C937        C  0.50832847  0.55396874  0.87082728     0.88300
C938        C  0.56744780  0.38437572  0.82683702     0.88300
C939        C  0.57056147  0.55088705  0.85587920     0.88300
C940        C  0.50498441  0.38879374  0.84104087     0.88500
N941        N  0.91111821  0.28100545  0.87250874    -0.36000
N942        N  0.94576147  0.37603441  0.86630263    -0.56600
N943        N  0.97958856  0.27167412  0.85582193    -0.36000
N944        N  0.94307175  0.17639857  0.86250611    -0.56600
C945        C  0.89824697  0.33511388  0.86914627     0.27600
C946        C  0.89673208  0.23232020  0.86682427     0.27600
C947        C  0.99095861  0.32261519  0.84329362     0.27500
C948        C  0.98962488  0.21744847  0.84250605     0.27500
C949        C  0.92866347  0.41036169  0.88250789     0.36200
C950        C  0.96585750  0.40846294  0.86918180     0.36200
C951        C  0.92511246  0.14638606  0.87732425     0.36200
C952        C  0.96254462  0.13904019  0.86639310     0.36200
C953        C  0.87556549  0.32087072  0.85914918    -0.21300
C954        C  0.87455972  0.25556398  0.85795192    -0.21300
C955        C  0.00801987  0.30009045  0.82089513    -0.21300
C956        C  0.00715446  0.23443933  0.82036881    -0.21300
C957        C  0.93755872  0.46630801  0.89481645    -0.22400
C958        C  0.96101245  0.46584516  0.88594375    -0.22400
C959        C  0.93288105  0.08843555  0.88969232    -0.22400
C960        C  0.95654989  0.08318129  0.88237965    -0.22400
C961        C  0.90498954  0.39180539  0.88471568    -0.17700
C962        C  0.90184863  0.17164092  0.87930480    -0.17700
C963        C  0.98489107  0.15401628  0.85319078    -0.17700
C964        C  0.98767648  0.38740958  0.85467767    -0.17700
H965        H  0.86079067  0.35373797  0.85565854     0.15200
H966        H  0.85889067  0.22855395  0.85358489     0.15200
H967        H  0.02038094  0.32721165  0.80674909     0.15200
H968        H  0.01877167  0.20333388  0.80586663     0.15200
H969        H  0.92802082  0.50434446  0.90784674     0.13500
H970        H  0.97261826  0.50432483  0.89140080     0.13500
H971        H  0.92253265  0.05328394  0.90217300     0.13500
H972        H  0.96762961  0.04232262  0.88831500     0.13500
H973        H  0.92696632  0.27746950  0.88566794     0.26700
H974        H  0.96779479  0.27324023  0.87584025     0.26700
N975        N  0.98891821  0.76386828  0.80669341    -0.36000
N976        N  0.97102565  0.66726619  0.76064677    -0.56600
N977        N  0.93986825  0.76299292  0.73466401    -0.36000
N978        N  0.95887658  0.86126771  0.77615580    -0.56600
C979        C  0.00375296  0.71305823  0.81172450     0.27600
C980        C  0.00114033  0.81734133  0.81344879     0.27600
C981        C  0.93917997  0.71920041  0.70965348     0.27500
C982        C  0.92949066  0.81675301  0.72310320     0.27500
C983        C  0.98177225  0.62824206  0.78283894     0.36200
C984        C  0.95783992  0.63020295  0.74059926     0.36200
C985        C  0.97006357  0.89795552  0.79859862     0.36200
C986        C  0.93841754  0.89186971  0.76817436     0.36200
C987        C  0.02543663  0.73422887  0.82192686    -0.21300
C988        C  0.02387546  0.79974747  0.82276527    -0.21300
C989        C  0.92886526  0.74674235  0.68154111    -0.21300
C990        C  0.92268190  0.80825435  0.69014568    -0.21300
C991        C  0.97584073  0.56572711  0.77639144    -0.22400
C992        C  0.96085154  0.56693734  0.74937680    -0.22400
C993        C  0.95692225  0.95361347  0.80441748    -0.22400
C994        C  0.93649067  0.94905242  0.78560806    -0.22400
C995        C  0.99849620  0.64797582  0.80665471    -0.17700
C996        C  0.99222264  0.88146783  0.81276884    -0.17700
C997        C  0.92295696  0.86959987  0.74323227    -0.17700
C998        C  0.94364345  0.65337491  0.71406875    -0.17700
H999        H  0.04104405  0.70518784  0.82650786     0.15200
H1000       H  0.03799481  0.83114602  0.82883120     0.15200
H1001       H  0.92522135  0.72504674  0.65757174     0.15200
H1002       H  0.91339800  0.84224541  0.67440739     0.15200
H1003       H  0.98190814  0.52348803  0.78942720     0.13500
H1004       H  0.95318341  0.52587941  0.73757675     0.13500
H1005       H  0.96141175  0.99270167  0.82083202     0.13500
H1006       H  0.92238082  0.98456655  0.78400152     0.13500
H1007       H  0.97099630  0.76128246  0.80159119     0.26700
H1008       H  0.94304029  0.75415806  0.75987217     0.26700
C1009       C  0.33117011  0.46856195  0.71754866     0.30300
C1010       C  0.34615631  0.48427502  0.74425633    -0.36000
C1011       C  0.36136011  0.43525467  0.75554390     0.16300
C1012       C  0.36149446  0.37500991  0.74155592     0.22100
C1013       C  0.34629270  0.35904105  0.71527952    -0.34100
C1014       C  0.33116834  0.40796788  0.70398764     0.16200
O1015       O  0.31715754  0.50832142  0.70117293    -0.26100
C1016       C  0.30780396  0.47264689  0.67713892     0.06000
C1017       C  0.31570537  0.40954517  0.67783893    -0.31000
O1018       O  0.37697497  0.33636477  0.75573920    -0.22800
C1019       C  0.38713850  0.37195637  0.77908106    -0.02800
C1020       C  0.37811885  0.43418144  0.78023888    -0.17300
H1021       H  0.34636479  0.53180059  0.75487008     0.20700
H1022       H  0.34654703  0.31195503  0.70405801     0.19100
H1023       H  0.31202694  0.37179866  0.66014225     0.19000
H1024       H  0.38269557  0.47212873  0.79732439     0.14900
C1025       C  0.36961752  0.11453292  0.73376355     0.30300
C1026       C  0.36244603  0.13755919  0.70252273    -0.36000
C1027       C  0.33983792  0.12142138  0.69210765     0.16300
C1028       C  0.32536712  0.08395996  0.71079871     0.22100
C1029       C  0.33235025  0.06209527  0.74261700    -0.34100
C1030       C  0.35501176  0.07885274  0.75323536     0.16200
O1031       O  0.38960131  0.12699971  0.74870666    -0.26100
C1032       C  0.38807702  0.09910629  0.77831742     0.06000
C1033       C  0.36684119  0.06832535  0.78262393    -0.31000
O1034       O  0.30689209  0.06533146  0.69356343    -0.22800
C1035       C  0.30949001  0.09145315  0.66351590    -0.02800
C1036       C  0.32935803  0.12873088  0.66178919    -0.17300
H1037       H  0.37391595  0.16529726  0.68709662     0.20700
H1038       H  0.32124615  0.03234410  0.75750388     0.19100
H1039       H  0.36026109  0.04664267  0.80510583     0.19000
H1040       H  0.33712565  0.14864644  0.63959987     0.14900
C1041       C  0.38740687  0.58270045  0.01122941     0.30300
C1042       C  0.36290176  0.59289847  0.01093035    -0.36000
C1043       C  0.35065138  0.58135268  0.54108538     0.16300
C1044       C  0.36211744  0.55837576  0.56906126     0.22100
C1045       C  0.38738919  0.55617265  0.07067758    -0.34100
C1046       C  0.39910205  0.56442778  0.03996755     0.16200
O1047       O  0.40187282  0.59524701  0.98649187    -0.26100
C1048       C  0.42328935  0.58450693  0.99913164     0.06000
C1049       C  0.42257459  0.56394291  0.03224598    -0.31000
O1050       O  0.34762918  0.55251933  0.59490874    -0.22800
C1051       C  0.32669332  0.57245634  0.58314082    -0.02800
C1052       C  0.32774955  0.59122868  0.54987284    -0.17300
H1053       H  0.35359226  0.60783958  0.98858237     0.20700
H1054       H  0.39677736  0.54300752  0.09325433     0.19100
H1055       H  0.43722517  0.55716340  0.04929229     0.19000
H1056       H  0.31335360  0.60672559  0.53387428     0.14900
C1057       C  0.35100759  0.90339909  0.54501952     0.30300
C1058       C  0.36149172  0.90735467  0.01058509    -0.36000
C1059       C  0.38615116  0.90015104  0.00968239     0.16300
C1060       C  0.39977245  0.89929666  0.03824246     0.22100
C1061       C  0.38955700  0.89655154  0.57193255    -0.34100
C1062       C  0.36490260  0.90223004  0.57332429     0.16200
O1063       O  0.32871655  0.91706709  0.55185476    -0.26100
C1064       C  0.32820148  0.92459015  0.58502383     0.06000
C1065       C  0.35019368  0.91380962  0.59976713    -0.31000
O1066       O  0.42217297  0.88658937  0.03188276    -0.22800
C1067       C  0.42310382  0.87872515  0.99881059    -0.02800
C1068       C  0.40116193  0.88753958  0.98364925    -0.17300
H1069       H  0.35095560  0.90846156  0.98801033     0.20700
H1070       H  0.40032282  0.89628019  0.59429118     0.19100
H1071       H  0.35508768  0.92175030  0.62563526     0.19000
H1072       H  0.39653852  0.87833932  0.95779358     0.14900
C1073       C  0.74905092  0.89807802  0.48584573     0.30300
C1074       C  0.74153576  0.89791519  0.45249616    -0.36000
C1075       C  0.71767310  0.88513314  0.94835350     0.16300
C1076       C  0.70247028  0.87151441  0.97403208     0.22100
C1077       C  0.71006043  0.87235656  0.00769940    -0.34100
C1078       C  0.73383689  0.88741464  0.51196728     0.16200
O1079       O  0.76989217  0.91518391  0.49599667    -0.26100
C1080       C  0.76836362  0.91760972  0.52924646     0.06000
C1081       C  0.74626243  0.89976457  0.54076936    -0.31000
O1082       O  0.68165723  0.85455146  0.96272601    -0.22800
C1083       C  0.68357489  0.85878233  0.92949037    -0.02800
C1084       C  0.70537980  0.87995782  0.91938422    -0.17300
H1085       H  0.75335996  0.90806418  0.43207917     0.20700
H1086       H  0.69816129  0.86367216  0.02822880     0.19100
H1087       H  0.73953333  0.90240327  0.56611829     0.19000
H1088       H  0.71206154  0.88396174  0.89412579     0.14900
C1089       C  0.71798943  0.06709307  0.63308226     0.30300
C1090       C  0.69541331  0.09311572  0.63999204    -0.36000
C1091       C  0.68480661  0.07313242  0.66984088     0.16300
C1092       C  0.69580189  0.03158505  0.69176379     0.22100
C1093       C  0.71816432  0.00510031  0.68465321    -0.34100
C1094       C  0.72858374  0.02440100  0.65475402     0.16200
O1095       O  0.73143432  0.07913437  0.60685952    -0.26100
C1096       C  0.75073950  0.04299750  0.61191497     0.06000
C1097       C  0.74989030  0.00862702  0.64144590    -0.31000
O1098       O  0.68460407  0.02786193  0.72065101    -0.22800
C1099       C  0.66581992  0.06641546  0.71710963    -0.02800
C1100       C  0.66496817  0.09505764  0.68573372    -0.17300
H1101       H  0.68700048  0.12790134  0.62380909     0.20700
H1102       H  0.72726461  0.97363102  0.70192744     0.19100
H1103       H  0.76311785  0.97635789  0.65175856     0.19000
H1104       H  0.65345144  0.13408842  0.67797711     0.14900
C1105       C  0.87554613  0.95852206  0.71045587     0.30300
C1106       C  0.86609667  0.00669330  0.69015683    -0.36000
C1107       C  0.84654976  0.99064549  0.67063916     0.16300
C1108       C  0.83672532  0.93138491  0.67070085     0.22100
C1109       C  0.84536993  0.88419111  0.69246891    -0.34100
C1110       C  0.86493262  0.90033163  0.71221035     0.16200
O1111       O  0.89663578  0.95838091  0.72464730    -0.26100
C1112       C  0.89944344  0.89961054  0.73623426     0.06000
C1113       C  0.87988989  0.86233625  0.73001687    -0.31000
O1114       O  0.82132336  0.92372349  0.64603238    -0.22800
C1115       C  0.82136110  0.97910606  0.63011970    -0.02800
C1116       C  0.83630517  0.02261796  0.64514959    -0.17300
H1117       H  0.87473779  0.05155504  0.68729046     0.20700
H1118       H  0.83870185  0.83647779  0.69193052     0.19100
H1119       H  0.87864650  0.81151565  0.73339598     0.19000
H1120       H  0.84047294  0.06995174  0.63706602     0.14900
C1121       C  0.85380390  0.14187193  0.93173473     0.30300
C1122       C  0.82998050  0.13875871  0.94131009    -0.36000
C1123       C  0.82567942  0.13346120  0.97587338     0.16300
C1124       C  0.84479903  0.13328555  0.50126222     0.22100
C1125       C  0.86844162  0.13513248  0.49161066    -0.34100
C1126       C  0.87153032  0.13995674  0.95527341     0.16200
O1127       O  0.86205501  0.14792729  0.90101811    -0.26100
C1128       C  0.88540017  0.14845522  0.90503667     0.06000
C1129       C  0.89214447  0.14347553  0.93837925    -0.31000
O1130       O  0.83757785  0.11601113  0.53085771    -0.22800
C1131       C  0.81460578  0.10728560  0.52718382    -0.02800
C1132       C  0.80663968  0.12306235  0.49512811    -0.17300
H1133       H  0.81590642  0.13797426  0.92305402     0.20700
H1134       H  0.88266541  0.12947440  0.50947435     0.19100
H1135       H  0.90963554  0.14725316  0.94889151     0.19000
H1136       H  0.78884311  0.10655519  0.98204670     0.14900
C1137       C  0.69309617  0.36522282  0.68606020     0.30300
C1138       C  0.70413591  0.35247120  0.65512888    -0.36000
C1139       C  0.72614945  0.37966304  0.65046920     0.16300
C1140       C  0.73644762  0.41707286  0.67457096     0.22100
C1141       C  0.72533065  0.43028505  0.70540547    -0.34100
C1142       C  0.70331712  0.40301681  0.71010855     0.16200
O1143       O  0.67392490  0.33852441  0.69702735    -0.29700
C1144       C  0.67152970  0.35980745  0.72840572     0.06000
C1145       C  0.68929343  0.40058043  0.73787486    -0.31000
O1146       O  0.75648936  0.44018884  0.66440328    -0.22800
C1147       C  0.75935571  0.41703185  0.63341112    -0.02800
C1148       C  0.74087927  0.37900736  0.62340892    -0.17300
H1149       H  0.69633202  0.32223952  0.63631909     0.20700
H1150       H  0.73342289  0.45922732  0.72452763     0.19100
H1151       H  0.69293134  0.41906227  0.76266706     0.19000
H1152       H  0.73786549  0.35827298  0.59892976     0.14900
C1153       C  0.74946950  0.55042268  0.49190966     0.30300
C1154       C  0.74021045  0.52884269  0.96316927    -0.36000
C1155       C  0.71758419  0.54985251  0.95297598     0.16300
C1156       C  0.70335130  0.58881647  0.97280362     0.22100
C1157       C  0.71224514  0.60877892  0.50149124    -0.34100
C1158       C  0.73500745  0.58954647  0.51132067     0.16200
O1159       O  0.76859182  0.53095149  0.50824238    -0.26100
C1160       C  0.76641653  0.55845029  0.53839301     0.06000
C1161       C  0.74601495  0.59646485  0.54126785    -0.31000
O1162       O  0.68351441  0.60570347  0.95791846    -0.22800
C1163       C  0.68470386  0.57702141  0.92808375    -0.02800
C1164       C  0.70561978  0.54159322  0.92355141    -0.17300
H1165       H  0.75114355  0.49740321  0.94773005     0.20700
H1166       H  0.70093302  0.63847134  0.51733362     0.19100
H1167       H  0.73873124  0.61842176  0.56376868     0.19000
H1168       H  0.71201090  0.51847775  0.90085199     0.14900
C1169       C  0.86173926  0.53333024  0.65636183     0.30300
C1170       C  0.87445335  0.53308033  0.68629961    -0.36000
C1171       C  0.89695619  0.55795025  0.68484697     0.16300
C1172       C  0.90651882  0.58106252  0.65580177     0.22100
C1173       C  0.89395331  0.57949939  0.62536654    -0.34100
C1174       C  0.87111971  0.55522551  0.62693331     0.16200
O1175       O  0.83975534  0.51689506  0.65320006    -0.26100
C1176       C  0.83458354  0.52800706  0.62130320     0.06000
C1177       C  0.85354177  0.55162125  0.60346960    -0.31000
O1178       O  0.92602758  0.61213021  0.66159273    -0.22800
C1179       C  0.92889971  0.60881025  0.69468813    -0.02800
C1180       C  0.91145422  0.57470103  0.71021516    -0.17300
H1181       H  0.86671239  0.51821269  0.70962547     0.20700
H1182       H  0.90083505  0.59972995  0.60268190     0.19100
H1183       H  0.85425776  0.56461408  0.57735626     0.19000
H1184       H  0.90818755  0.57052039  0.73680297     0.14900
C1185       C  0.85809543  0.41736391  0.94036992     0.30300
C1186       C  0.83489496  0.40832995  0.95116611    -0.36000
C1187       C  0.83203296  0.40601588  0.48503806     0.16300
C1188       C  0.85010606  0.41821546  0.50701178     0.22100
C1189       C  0.87293492  0.43053022  0.49553877    -0.34100
C1190       C  0.87615671  0.42589300  0.96284071     0.16200
O1191       O  0.86566014  0.41232893  0.90928960    -0.26100
C1192       C  0.88896085  0.41746563  0.91148226     0.06000
C1193       C  0.89637569  0.42677278  0.94445300    -0.31000
O1194       O  0.84277337  0.42251601  0.53826334    -0.22800
C1195       C  0.81977850  0.41164344  0.53655689    -0.02800
C1196       C  0.81215920  0.40071225  0.50397139    -0.17300
H1197       H  0.82064387  0.40096463  0.93368184     0.20700
H1198       H  0.88726787  0.43972511  0.51262465     0.19100
H1199       H  0.91422921  0.42605803  0.95398504     0.19000
H1200       H  0.79418575  0.39780298  0.49515144     0.14900
C1201       C  0.24156043  0.96215145  0.71796566     0.30300
C1202       C  0.22517324  0.98819791  0.74118727    -0.36000
C1203       C  0.21333363  0.94447293  0.76104270     0.16300
C1204       C  0.21754369  0.87984965  0.75810886     0.22100
C1205       C  0.23427334  0.85391098  0.73549174    -0.34100
C1206       C  0.24603997  0.89749258  0.71562556     0.16200
O1207       O  0.25317378  0.99379460  0.69526543    -0.26100
C1208       C  0.26541596  0.94910156  0.67822693     0.06000
C1209       C  0.26184554  0.88811011  0.69005255    -0.31000
O1210       O  0.20401021  0.84736029  0.77795123    -0.22800
C1211       C  0.19080634  0.89116408  0.79423731    -0.02800
C1212       C  0.19604579  0.95294022  0.78485663    -0.17300
H1213       H  0.22142244  0.03885569  0.74292093     0.20700
H1214       H  0.23744900  0.80311064  0.73299511     0.19100
H1215       H  0.26880124  0.84333064  0.68014158     0.19000
H1216       H  0.18869136  0.99750508  0.79438547     0.14900
C1217       C  0.20739715  0.65441639  0.74803353     0.30300
C1218       C  0.21278602  0.67832478  0.71645999    -0.36000
C1219       C  0.23544642  0.66362617  0.70431248     0.16300
C1220       C  0.25162790  0.62661128  0.72163978     0.22100
C1221       C  0.24649376  0.60452128  0.75397221    -0.34100
C1222       C  0.22376564  0.61977910  0.76631879     0.16200
O1223       O  0.18738178  0.66396950  0.76410258    -0.26100
C1224       C  0.19071565  0.63530458  0.79328793     0.06000
C1225       C  0.21313947  0.60703903  0.79620228    -0.31000
O1226       O  0.26974340  0.60812962  0.70269449    -0.22800
C1227       C  0.26519445  0.63409069  0.67294000    -0.02800
C1228       C  0.24446361  0.67134224  0.67320176    -0.17300
H1229       H  0.19991796  0.70508478  0.70191548     0.20700
H1230       H  0.25891809  0.57507246  0.76784821     0.19100
H1231       H  0.22096116  0.58457095  0.81793856     0.19000
H1232       H  0.23532518  0.69177940  0.65190695     0.14900
C1233       C  0.17832315  0.42759688  0.03929544     0.30300
C1234       C  0.18769093  0.43552217  0.07152079    -0.36000
C1235       C  0.20959547  0.46506004  0.57108786     0.16300
C1236       C  0.22430647  0.46590981  0.54360936     0.22100
C1237       C  0.21649362  0.44267153  0.01279504    -0.34100
C1238       C  0.19233314  0.43067938  0.01116879     0.16200
O1239       O  0.15674340  0.41040809  0.03222763    -0.26100
C1240       C  0.15686155  0.40174107  0.99917651     0.06000
C1241       C  0.17850757  0.41460096  0.98470390    -0.31000
O1242       O  0.24613687  0.47919909  0.55163068    -0.22800
C1243       C  0.24553029  0.48646327  0.58476692    -0.02800
C1244       C  0.22328591  0.47677943  0.59828375    -0.17300
H1245       H  0.17398443  0.45428927  0.59022623     0.20700
H1246       H  0.22733875  0.44501385  0.99057001     0.19100
H1247       H  0.18394525  0.40643142  0.95900315     0.19000
H1248       H  0.21770306  0.48258696  0.62408142     0.14900
C1249       C  0.21321121  0.04125201  0.56336172     0.30300
C1250       C  0.18843092  0.04526070  0.56386734    -0.36000
C1251       C  0.17616759  0.05465492  0.03308820     0.16300
C1252       C  0.18839580  0.06665962  0.00404439     0.22100
C1253       C  0.21302788  0.06504180  0.00324142    -0.34100
C1254       C  0.22549799  0.04920618  0.53395696     0.16200
O1255       O  0.22733024  0.03100450  0.58924022    -0.26100
C1256       C  0.24886139  0.03220896  0.57597802     0.06000
C1257       C  0.24867727  0.04343517  0.54172043    -0.31000
O1258       O  0.17470905  0.08861586  0.98001179    -0.22800
C1259       C  0.15329824  0.09072789  0.99344383    -0.02800
C1260       C  0.15301320  0.06822946  0.02619162    -0.17300
H1261       H  0.17851524  0.04075093  0.58683178     0.20700
H1262       H  0.22272757  0.07620046  0.98081032     0.19100
H1263       H  0.26355079  0.04621339  0.52486502     0.19000
H1264       H  0.13848793  0.07057438  0.04377879     0.14900
loop_ 
_geom_bond_atom_site_label_1 
_geom_bond_atom_site_label_2 
_geom_bond_distance 
_geom_bond_site_symmetry_2 
_ccdc_geom_bond_type 
N1            C6   1.353       .  A
N1            C5   1.353       .  A
N1           H33   1.039       .  S
N2            C9   1.350       .  A
N2           C10   1.348       .  A
N3            C8   1.360       .  A
N3            C7   1.360       .  A
N3           H34   1.042       .  S
N4           C11   1.351       .  A
N4           C12   1.349       .  A
C5           C13   1.388       .  A
C5           C21   1.414       .  A
C6           C22   1.414       .  A
C6           C14   1.387       .  A
C7           C15   1.382       .  A
C7           C24   1.422       .  A
C8           C23   1.422       .  A
C8           C16   1.381       .  A
C9           C21   1.410       .  A
C9           C17   1.386       .  A
C10          C24   1.408       .  A
C10          C18   1.387       .  A
C11          C19   1.385       .  A
C11          C22   1.410       .  A
C12          C20   1.387       .  A
C12          C23   1.410       .  A
C13          C14   1.367       .  A
C13          H25   1.079       .  S
C14          H26   1.079       .  S
C15          C16   1.378       .  A
C15          H27   1.079       .  S
C16          H28   1.078       .  S
C17          C18   1.377       .  A
C17          H29   1.082       .  S
C18          H30   1.083       .  S
C19          C20   1.377       .  A
C19          H31   1.082       .  S
C20          H32   1.083       .  S
C21         C608   1.479       .  S
C22         C627   1.480       .  S
C23          C45   1.490       .  S
C24          C61   1.490       .  S
O35         Ni43   1.939       .  S
O35          C45   1.285       .  A
O36         Ni43   1.936   1_565  S
O36          C46   1.284       .  A
O37         Ni43   1.924       .  S
O37          C47   1.279       .  A
O38         Ni43   1.932   1_565  S
O38          C48   1.284       .  A
O39         Ni44   1.941   1_565  S
O39          C48   1.284       .  A
O40         Ni44   1.937       .  S
O40          C47   1.287       .  A
O41         Ni44   1.930   1_565  S
O41          C46   1.282       .  A
O42         Ni44   1.916       .  S
O42          C45   1.280       .  A
Ni43        Ni44   2.381       .  S
C46         C364   1.494   1_455  S
C47         C331   1.506   1_455  S
C48          C84   1.514       .  S
O49         Ni57   1.933       .  S
O49          C59   1.282       .  A
O50         Ni57   1.935       .  S
O50          C60   1.286       .  A
O51         Ni57   1.928       .  S
O51          C61   1.282       .  A
O52         Ni57   1.917       .  S
O52          C62   1.281       .  A
O53         Ni58   1.930       .  S
O53          C62   1.283       .  A
O54         Ni58   1.926       .  S
O54          C61   1.282       .  A
O55         Ni58   1.928       .  S
O55          C60   1.281       .  A
O56         Ni58   1.930       .  S
O56          C59   1.285       .  A
Ni57        Ni58   2.381       .  S
C59         C332   1.508   1_455  S
C60          C83   1.509       .  S
C62         C363   1.488   1_455  S
N63          C68   1.365       .  A
N63          C67   1.365       .  A
N63          H95   1.043       .  S
N64          C71   1.348       .  A
N64          C72   1.353       .  A
N65          C70   1.343       .  A
N65          C69   1.346       .  A
N65          H96   1.043       .  S
N66          C73   1.350       .  A
N66          C74   1.357       .  A
C67          C75   1.389       .  A
C67          C83   1.440       .  A
C68          C84   1.439       .  A
C68          C76   1.388       .  A
C69          C77   1.387       .  A
C69          C86   1.398       .  A
C70          C85   1.401       .  A
C70          C78   1.387       .  A
C71          C83   1.420       .  A
C71          C79   1.394       .  A
C72          C86   1.409       .  A
C72          C80   1.380       .  A
C73          C81   1.393       .  A
C73          C84   1.428       .  A
C74          C82   1.381       .  A
C74          C85   1.419       .  A
C75          C76   1.383       .  A
C75          H87   1.079       .  S
C76          H88   1.080       .  S
C77          C78   1.376       .  A
C77          H89   1.082       .  S
C78          H90   1.083       .  S
C79          C80   1.379       .  A
C79          H91   1.078       .  S
C80          H92   1.082       .  S
C81          C82   1.380       .  A
C81          H93   1.078       .  S
C82          H94   1.079       .  S
C85         C579   1.494       .  S
C86         C592   1.478       .  S
C97          C98   1.521       .  S
C97         C103   1.522       .  S
C97         C101   1.552       .  S
C97         C515   1.503       .  S
C98         H105   1.088       .  S
C98          C99   1.360       .  D
C99         C100   1.548       .  S
C99         C528   1.480       .  S
C100        C104   1.547       .  S
C100        C102   1.526       .  S
C100        H106   1.111       .  S
C101        H107   1.085       .  S
C101        C102   1.375       .  D
C102        C563   1.466       .  S
C103        H108   1.087       .  S
C103        C104   1.362       .  D
C104        C544   1.481       .  S
C109        C110   1.518   1_545  S
C109        C115   1.518       .  S
C109        C113   1.556       .  S
C109        C499   1.516       .  S
C110        H117   1.087       .  S
C110        C111   1.360       .  D
C111        C112   1.551       .  S
C111        C448   1.488       .  S
C112        C116   1.551       .  S
C112        C114   1.535   1_565  S
C112        H118   1.110       .  S
C113        H119   1.085       .  S
C113        C114   1.382       .  D
C114        C464   1.481       .  S
C115        H120   1.084       .  S
C115        C116   1.357   1_545  D
C116        C483   1.487       .  S
N121        C126   1.345       .  A
N121        C125   1.347       .  A
N121        H153   1.042       .  S
N122        C129   1.352       .  A
N122        C130   1.348       .  A
N123        C128   1.365       .  A
N123        C127   1.363       .  A
N123        H154   1.041       .  S
N124        C131   1.354       .  A
N124        C132   1.350       .  A
C125        C133   1.388       .  A
C125        C141   1.404       .  A
C126        C142   1.402       .  A
C126        C134   1.387       .  A
C127        C135   1.386       .  A
C127        C144   1.436       .  A
C128        C143   1.438       .  A
C128        C136   1.387       .  A
C129        C141   1.407       .  A
C129        C137   1.381       .  A
C130        C144   1.418       .  A
C130        C138   1.393       .  A
C131        C139   1.380       .  A
C131        C142   1.410       .  A
C132        C140   1.393       .  A
C132        C143   1.424       .  A
C133        C134   1.371       .  A
C133        H145   1.082       .  S
C134        H146   1.082       .  S
C135        C136   1.377       .  A
C135        H147   1.077       .  S
C136        H148   1.077       .  S
C137        C138   1.377       .  A
C137        H149   1.082       .  S
C138        H150   1.080       .  S
C139        C140   1.380       .  A
C139        H151   1.082   1_545  S
C140        H152   1.080   1_545  S
C141        C512   1.473       .  S
C142        C467   1.480       .  S
C143        C294   1.507       .  S
C144        C306   1.498       .  S
N155        C160   1.366       .  A
N155        C159   1.364       .  A
N155        H187   1.043       .  S
N156        C163   1.349       .  A
N156        C164   1.354       .  A
N157        C162   1.346       .  A
N157        C161   1.346       .  A
N157        H188   1.042       .  S
N158        C165   1.349       .  A
N158        C166   1.354       .  A
C159        C167   1.386       .  A
C159        C175   1.437       .  A
C160        C176   1.441       .  A
C160        C168   1.388       .  A
C161        C169   1.383       .  A
C161        C178   1.397       .  A
C162        C177   1.407       .  A
C162        C170   1.389       .  A
C163        C175   1.423       .  A
C163        C171   1.394       .  A
C164        C178   1.409       .  A
C164        C172   1.379       .  A
C165        C173   1.396       .  A
C165        C176   1.425       .  A
C166        C174   1.378       .  A
C166        C177   1.409       .  A
C167        C168   1.385       .  A
C167        H179   1.080       .  S
C168        H180   1.080       .  S
C169        C170   1.371       .  A
C169        H181   1.082       .  S
C170        H182   1.078       .  S
C171        C172   1.381       .  A
C171        H183   1.080       .  S
C172        H184   1.082       .  S
C173        C174   1.377       .  A
C173        H185   1.078       .  S
C174        H186   1.082       .  S
C175        C307   1.509       .  S
C176        C291   1.515       .  S
C177        C451   1.483       .  S
C178        C531   1.481       .  S
N189        C194   1.349       .  A
N189        C193   1.348       .  A
N189        H221   1.042       .  S
N190        C197   1.352       .  A
N190        C198   1.348       .  A
N191        C196   1.360       .  A
N191        C195   1.361       .  A
N191        H222   1.040       .  S
N192        C199   1.354       .  A
N192        C200   1.347       .  A
C193        C201   1.389       .  A
C193        C209   1.408       .  A
C194        C210   1.405       .  A
C194        C202   1.385       .  A
C195        C203   1.382       .  A
C195        C212   1.426       .  A
C196        C211   1.425       .  A
C196        C204   1.382       .  A
C197        C209   1.412       .  A
C197        C205   1.385       .  A
C198        C212   1.411       .  A
C198        C206   1.386       .  A
C199        C207   1.384       .  A
C199        C210   1.412       .  A
C200        C208   1.388       .  A
C200        C211   1.414       .  A
C201        C202   1.371       .  A
C201        H213   1.080       .  S
C202        H214   1.080       .  S
C203        C204   1.376       .  A
C203        H215   1.076       .  S
C204        H216   1.077       .  S
C205        C206   1.381       .  A
C205        H217   1.082       .  S
C206        H218   1.083       .  S
C207        C208   1.383       .  A
C207        H219   1.082       .  S
C208        H220   1.083       .  S
C209        C435   1.482       .  S
C210        C416   1.486       .  S
C211        C305   1.491       .  S
C212        C293   1.495       .  S
C223        C224   1.526   1_565  S
C223        C229   1.519       .  S
C223        C227   1.554       .  S
C223        C432   1.510       .  S
C224        H231   1.088       .  S
C224        C225   1.361       .  D
C225        C226   1.547       .  S
C225        C403   1.483       .  S
C226        C230   1.552       .  S
C226        C228   1.531   1_545  S
C226        H232   1.111       .  S
C227        H233   1.085       .  S
C227        C228   1.378       .  D
C228        C576   1.482       .  S
C229        H234   1.086       .  S
C229        C230   1.361   1_565  D
C230        C624   1.479       .  S
N235        C240   1.363       .  A
N235        C239   1.364       .  A
N235        H267   1.043       .  S
N236        C243   1.350       .  A
N236        C244   1.353       .  A
N237        C242   1.345       .  A
N237        C241   1.345       .  A
N237        H268   1.042       .  S
N238        C245   1.348       .  A
N238        C246   1.353       .  A
C239        C247   1.387       .  A
C239        C255   1.436       .  A
C240        C256   1.434       .  A
C240        C248   1.386       .  A
C241        C249   1.387       .  A
C241        C258   1.401       .  A
C242        C257   1.402       .  A
C242        C250   1.387       .  A
C243        C255   1.422       .  A
C243        C251   1.392       .  A
C244        C258   1.412       .  A
C244        C252   1.381       .  A
C245        C253   1.393       .  A
C245        C256   1.420       .  A
C246        C254   1.381       .  A
C246        C257   1.412       .  A
C247        C248   1.380       .  A
C247        H259   1.078       .  S
C248        H260   1.078       .  S
C249        C250   1.376       .  A
C249        H261   1.082       .  S
C250        H262   1.083       .  S
C251        C252   1.381       .  A
C251        H263   1.079   1_545  S
C252        H264   1.082       .  S
C253        C254   1.379       .  A
C253        H265   1.079       .  S
C254        H266   1.082       .  S
C255        C292   1.511       .  S
C256        C308   1.505       .  S
C257        C387   1.482       .  S
C258        C400   1.480       .  S
C269        C270   1.522       .  S
C269        C275   1.525       .  S
C269        C273   1.546       .  S
C269        C611   1.508       .  S
C270        H277   1.086       .  S
C270        C271   1.364       .  D
C271        C272   1.552       .  S
C271        C419   1.483       .  S
C272        C276   1.546       .  S
C272        C274   1.532       .  S
C272        H278   1.111       .  S
C273        H279   1.086       .  S
C273        C274   1.373       .  D
C274        C384   1.475       .  S
C275        H280   1.087       .  S
C275        C276   1.364       .  D
C276        C595   1.482       .  S
O281       Ni289   1.927       .  S
O281        C291   1.283       .  A
O282       Ni289   1.930   1_545  S
O282        C292   1.282       .  A
O283       Ni289   1.922       .  S
O283        C293   1.282       .  A
O284       Ni289   1.933   1_545  S
O284        C294   1.283       .  A
O285       Ni290   1.933   1_545  S
O285        C294   1.284       .  A
O286       Ni290   1.936       .  S
O286        C293   1.284       .  A
O287       Ni290   1.938   1_545  S
O287        C292   1.285       .  A
O288       Ni290   1.944       .  S
O288        C291   1.284       .  A
Ni289      Ni290   2.376       .  S
O295       Ni303   1.914       .  S
O295        C305   1.279       .  A
O296       Ni303   1.920       .  S
O296        C306   1.280       .  A
O297       Ni303   1.934       .  S
O297        C307   1.286       .  A
O298       Ni303   1.931       .  S
O298        C308   1.283       .  A
O299       Ni304   1.925       .  S
O299        C308   1.282       .  A
O300       Ni304   1.936       .  S
O300        C307   1.282       .  A
O301       Ni304   1.932       .  S
O301        C306   1.285       .  A
O302       Ni304   1.937       .  S
O302        C305   1.285       .  A
Ni303      Ni304   2.379       .  S
N309        C314   1.344       .  A
N309        C313   1.343       .  A
N309        H341   1.043       .  S
N310        C317   1.355       .  A
N310        C318   1.349       .  A
N311        C316   1.365       .  A
N311        C315   1.365       .  A
N311        H342   1.041       .  S
N312        C319   1.353       .  A
N312        C320   1.348       .  A
C313        C321   1.387       .  A
C313        C329   1.400       .  A
C314        C330   1.397       .  A
C314        C322   1.385       .  A
C315        C323   1.388   1_655  A
C315        C332   1.439       .  A
C316        C331   1.440       .  A
C316        C324   1.388   1_655  A
C317        C329   1.412       .  A
C317        C325   1.379       .  A
C318        C332   1.425       .  A
C318        C326   1.395       .  A
C319        C327   1.380       .  A
C319        C330   1.410       .  A
C320        C328   1.394       .  A
C320        C331   1.419       .  A
C321        C322   1.376       .  A
C321        H333   1.082       .  S
C322        H334   1.082       .  S
C323        C324   1.382       .  A
C323        H335   1.079       .  S
C324        H336   1.080       .  S
C325        C326   1.378       .  A
C325        H337   1.082       .  S
C326        H338   1.079       .  S
C327        C328   1.374       .  A
C327        H339   1.082       .  S
C328        H340   1.079       .  S
C329        C560   1.492       .  S
C330        C496   1.483       .  S
N343        C348   1.363   1_655  A
N343        C347   1.359   1_655  A
N343        H375   1.039       .  S
N344        C351   1.348       .  A
N344        C352   1.353       .  A
N345        C350   1.345       .  A
N345        C349   1.353       .  A
N345        H376   1.041       .  S
N346        C353   1.346       .  A
N346        C354   1.350       .  A
C347        C355   1.381       .  A
C347        C363   1.422   1_455  A
C348        C364   1.428   1_455  A
C348        C356   1.384       .  A
C349        C357   1.391       .  A
C349        C366   1.413       .  A
C350        C365   1.403       .  A
C350        C358   1.382       .  A
C351        C363   1.412       .  A
C351        C359   1.388       .  A
C352        C366   1.415       .  A
C352        C360   1.386       .  A
C353        C361   1.388       .  A
C353        C364   1.413       .  A
C354        C362   1.385       .  A
C354        C365   1.409       .  A
C355        C356   1.377       .  A
C355        H367   1.078       .  S
C356        H368   1.078       .  S
C357        C358   1.371       .  A
C357        H369   1.079       .  S
C358        H370   1.083       .  S
C359        C360   1.375       .  A
C359        H371   1.082       .  S
C360        H372   1.081       .  S
C361        C362   1.386       .  A
C361        H373   1.083   1_565  S
C362        H374   1.082       .  S
C365        C480   1.483       .  S
C366        C547   1.489       .  S
C377        C382   1.380       .  A
C377        C378   1.407       .  A
C377        O383   1.317       .  A
C378        C379   1.404       .  A
C378        H389   1.082       .  S
C379        C388   1.370       .  A
C379        C380   1.380       .  A
C380        C381   1.402       .  A
C380        O386   1.312       .  A
C381        C382   1.399       .  A
C381        H390   1.083       .  S
C382        C385   1.363       .  A
O383        C384   1.332       .  A
C384        C385   1.390       .  A
C385        H391   1.082       .  S
O386        C387   1.331       .  A
C387        C388   1.392       .  A
C388        H392   1.082       .  S
C393        C398   1.379       .  A
C393        C394   1.402       .  A
C393        O399   1.316       .  A
C394        C395   1.401       .  A
C394        H405   1.082       .  S
C395        C404   1.359       .  A
C395        C396   1.378       .  A
C396        C397   1.409       .  A
C396        O402   1.322       .  A
C397        C398   1.407       .  A
C397        H406   1.082       .  S
C398        C401   1.369       .  A
O399        C400   1.331       .  A
C400        C401   1.394       .  A
C401        H407   1.082       .  S
O402        C403   1.334       .  A
C403        C404   1.395       .  A
C404        H408   1.083       .  S
C409        C414   1.379       .  A
C409        C410   1.400       .  A
C409        O415   1.317       .  A
C410       C1043   1.400       .  A
C410        H421   1.082       .  S
C411        C420   1.357       .  A
C411        C412   1.379       .  A
C411       C1042   1.401       .  A
C412       C1045   1.409       .  A
C412        O418   1.325       .  A
C413        C414   1.413       .  A
C413       C1044   1.412       .  A
C413        H422   1.082       .  S
C414        C417   1.370       .  A
O415        C416   1.330       .  A
C416        C417   1.399       .  A
C417        H423   1.082       .  S
O418        C419   1.334       .  A
C419        C420   1.392       .  A
C420        H424   1.083       .  S
C425        C430   1.379       .  A
C425       C1058   1.405       .  A
C425        O431   1.318       .  A
C426        C427   1.403       .  A
C426       C1057   1.404       .  A
C426        H437   1.082       .  S
C427        C436   1.363       .  A
C427        C428   1.378       .  A
C428       C1061   1.403       .  A
C428        O434   1.316       .  A
C429        C430   1.401       .  A
C429       C1060   1.402       .  A
C429        H438   1.082       .  S
C430        C433   1.360       .  A
O431        C432   1.333       .  A
C432        C433   1.393       .  A
C433        H439   1.083       .  S
O434        C435   1.331       .  A
C435        C436   1.393       .  A
C436        H440   1.083       .  S
C441        C446   1.378   1_556  A
C441        C442   1.398       .  A
C441        O447   1.308       .  A
C442       C1075   1.394       .  A
C442        H453   1.082       .  S
C443        C452   1.357       .  A
C443        C444   1.377       .  A
C443       C1074   1.395       .  A
C444        C445   1.413       .  A
C444        O450   1.322       .  A
C445       C1078   1.410       .  A
C445        H454   1.082       .  S
C446        C449   1.375       .  A
C446       C1077   1.410       .  A
O447        C448   1.331   1_556  A
C448        C449   1.398       .  A
C449        H455   1.082       .  S
O450        C451   1.336       .  A
C451        C452   1.388       .  A
C452        H456   1.083       .  S
C457        C462   1.379       .  A
C457        C458   1.406       .  A
C457        O463   1.327       .  A
C458        C459   1.409       .  A
C458        H469   1.082       .  S
C459        C468   1.360       .  A
C459        C460   1.380       .  A
C460        C461   1.400       .  A
C460        O466   1.321       .  A
C461        C462   1.401       .  A
C461        H470   1.082   1_545  S
C462        C465   1.353       .  A
O463        C464   1.333       .  A
C464        C465   1.392       .  A
C465        H471   1.082   1_545  S
O466        C467   1.330       .  A
C467        C468   1.396       .  A
C468        H472   1.083       .  S
C473        C478   1.382       .  A
C473        C474   1.397   1_565  A
C473        O479   1.323       .  A
C474        C475   1.401   1_545  A
C474        H485   1.083       .  S
C475        C484   1.347   1_565  A
C475        C476   1.380       .  A
C476        C477   1.403       .  A
C476        O482   1.328       .  A
C477        C478   1.408       .  A
C477        H486   1.082       .  S
C478        C481   1.355       .  A
O479        C480   1.328       .  A
C480        C481   1.396       .  A
C481        H487   1.083       .  S
O482        C483   1.332       .  A
C483        C484   1.395   1_565  A
C484        H488   1.082       .  S
C489        C494   1.377       .  A
C489        C490   1.408       .  A
C489        O495   1.320       .  A
C490        C491   1.407       .  A
C490        H501   1.082       .  S
C491       C1132   1.368       .  A
C491       C1124   1.379       .  A
C492        C493   1.398       .  A
C492       C1123   1.379       .  A
C492        O498   1.310   1_556  A
C493       C1126   1.395       .  A
C493        H502   1.083   1_556  S
C494        C497   1.354       .  A
C494       C1125   1.395       .  A
O495        C496   1.335       .  A
C496        C497   1.390       .  A
C497        H503   1.083       .  S
O498        C499   1.330       .  A
C499        C500   1.398   1_554  A
C500       C1123   1.368       .  A
C500       H1136   1.082       .  S
H504       C1132   1.082       .  S
C505        C510   1.379       .  A
C505        C506   1.403       .  A
C505        O511   1.314       .  A
C506        C507   1.400       .  A
C506        H517   1.082       .  S
C507        C516   1.363       .  A
C507        C508   1.378       .  A
C508        C509   1.403       .  A
C508        O514   1.314       .  A
C509        C510   1.401       .  A
C509        H518   1.082       .  S
C510        C513   1.364       .  A
O511        C512   1.331       .  A
C512        C513   1.391       .  A
C513        H519   1.082       .  S
O514        C515   1.332       .  A
C515        C516   1.392       .  A
C516        H520   1.082       .  S
C521        C526   1.379   1_556  A
C521       C1154   1.409       .  A
C521        O527   1.323   1_556  A
C522        C523   1.409       .  A
C522       C1153   1.410       .  A
C522        H533   1.082       .  S
C523        C532   1.370       .  A
C523        C524   1.378       .  A
C524       C1157   1.401       .  A
C524        O530   1.315       .  A
C525        C526   1.401       .  A
C525       C1156   1.402   1_554  A
C525        H534   1.082       .  S
C526        C529   1.359       .  A
O527        C528   1.334       .  A
C528        C529   1.393       .  A
C529        H535   1.083       .  S
O530        C531   1.331       .  A
C531        C532   1.396       .  A
C532        H536   1.082       .  S
C537        C542   1.379       .  A
C537        C538   1.398       .  A
C537        O543   1.310       .  A
C538        C539   1.396       .  A
C538        H549   1.082       .  S
C539        C548   1.357       .  A
C539        C540   1.378       .  A
C540        C541   1.410       .  A
C540        O546   1.320       .  A
C541        C542   1.407       .  A
C541        H550   1.082       .  S
C542        C545   1.371       .  A
O543        C544   1.329       .  A
C544        C545   1.395       .  A
C545        H551   1.082       .  S
O546        C547   1.334       .  A
C547        C548   1.390       .  A
C548        H552   1.083       .  S
C553        C558   1.377       .  A
C553        C554   1.405       .  A
C553        O559   1.316       .  A
C554       C1187   1.403       .  A
C554        H565   1.082       .  S
C555        C564   1.364   1_556  A
C555        C556   1.379   1_556  A
C555       C1186   1.402       .  A
C556        C557   1.404   1_554  A
C556        O562   1.316       .  A
C557       C1190   1.403       .  A
C557        H566   1.082   1_556  S
C558        C561   1.365       .  A
C558       C1189   1.404       .  A
O559        C560   1.334       .  A
C560        C561   1.397       .  A
C561        H567   1.082       .  S
O562        C563   1.332       .  A
C563        C564   1.389       .  A
C564        H568   1.082   1_554  S
C569        C574   1.379       .  A
C569        C570   1.408       .  A
C569        O575   1.316       .  A
C570        C571   1.404       .  A
C570        H581   1.082   1_565  S
C571        C580   1.372       .  A
C571        C572   1.378       .  A
C572        C573   1.406       .  A
C572        O578   1.313       .  A
C573        C574   1.402       .  A
C573        H582   1.082       .  S
C574        C577   1.369       .  A
O575        C576   1.333       .  A
C576        C577   1.392       .  A
C577        H583   1.082       .  S
O578        C579   1.335       .  A
C579        C580   1.395       .  A
C580        H584   1.081       .  S
C585        C590   1.379       .  A
C585        C586   1.399       .  A
C585        O591   1.314       .  A
C586        C587   1.399       .  A
C586        H597   1.082       .  S
C587        C596   1.356       .  A
C587        C588   1.379       .  A
C588        C589   1.409       .  A
C588        O594   1.322       .  A
C589        C590   1.408       .  A
C589        H598   1.082       .  S
C590        C593   1.369       .  A
O591        C592   1.329       .  A
C592        C593   1.395       .  A
C593        H599   1.082       .  S
O594        C595   1.334       .  A
C595        C596   1.394       .  A
C596        H600   1.083       .  S
C601        C606   1.380       .  A
C601        C602   1.403       .  A
C601        O607   1.317       .  A
C602       C1235   1.402       .  A
C602       H1245   1.082       .  S
C603        C612   1.360       .  A
C603        C604   1.379       .  A
C603       C1234   1.402       .  A
C604       C1237   1.403       .  A
C604        O610   1.318       .  A
C605        C606   1.401       .  A
C605       C1236   1.402       .  A
C605        H614   1.082       .  S
C606        C609   1.360       .  A
O607        C608   1.331       .  A
C608        C609   1.390       .  A
C609        H615   1.083       .  S
O610        C611   1.331       .  A
C611        C612   1.393       .  A
C612        H616   1.083       .  S
H613       C1234   1.082       .  S
C617        C622   1.379       .  A
C617        C618   1.408       .  A
C617        O623   1.325       .  A
C618       C1251   1.409       .  A
C618        H629   1.082       .  S
C619        C628   1.365       .  A
C619        C620   1.381       .  A
C619       C1250   1.407       .  A
C620        C621   1.399       .  A
C620        O626   1.315       .  A
C621       C1254   1.398       .  A
C621        H630   1.082       .  S
C622        C625   1.353       .  A
C622       C1253   1.397       .  A
O623        C624   1.334       .  A
C624        C625   1.390       .  A
C625        H631   1.083       .  S
O626        C627   1.328       .  A
C627        C628   1.395       .  A
C628        H632   1.082       .  S
N633        C638   1.352       .  A
N633        C637   1.352       .  A
N633        H665   1.041       .  S
N634        C641   1.351       .  A
N634        C642   1.349       .  A
N635        C640   1.361       .  A
N635        C639   1.360       .  A
N635        H666   1.041       .  S
N636        C643   1.350       .  A
N636        C644   1.347       .  A
C637        C645   1.388   1_556  A
C637        C653   1.413       .  A
C638        C654   1.411       .  A
C638        C646   1.386   1_556  A
C639        C647   1.383       .  A
C639        C656   1.424       .  A
C640        C655   1.422       .  A
C640        C648   1.380       .  A
C641        C653   1.412       .  A
C641        C649   1.386       .  A
C642        C656   1.411       .  A
C642        C650   1.387       .  A
C643        C651   1.385       .  A
C643        C654   1.408       .  A
C644        C652   1.387       .  A
C644        C655   1.408       .  A
C645        C646   1.369       .  A
C645        H657   1.079       .  S
C646        H658   1.079       .  S
C647        C648   1.377       .  A
C647        H659   1.078       .  S
C648        H660   1.077       .  S
C649        C650   1.380       .  A
C649        H661   1.082       .  S
C650        H662   1.083       .  S
C651        C652   1.378       .  A
C651        H663   1.082       .  S
C652        H664   1.083       .  S
C653       C1240   1.483       .  S
C654       C1259   1.479       .  S
C655        C677   1.490       .  S
C656        C693   1.491       .  S
O667       Ni675   1.939       .  S
O667        C677   1.284       .  A
O668       Ni675   1.939   1_565  S
O668        C678   1.285       .  A
O669       Ni675   1.926       .  S
O669        C679   1.280       .  A
O670       Ni675   1.934   1_565  S
O670        C680   1.284       .  A
O671       Ni676   1.937       .  S
O671        C680   1.284       .  A
O672       Ni676   1.934   1_545  S
O672        C679   1.286       .  A
O673       Ni676   1.933       .  S
O673        C678   1.282       .  A
O674       Ni676   1.917   1_545  S
O674        C677   1.280       .  A
Ni675      Ni676   2.381   1_545  S
C678        C996   1.497   1_455  S
C679        C963   1.504   1_455  S
C680        C716   1.512       .  S
O681       Ni689   1.936       .  S
O681        C691   1.283       .  A
O682       Ni689   1.933       .  S
O682        C692   1.285       .  A
O683       Ni689   1.927       .  S
O683        C693   1.282       .  A
O684       Ni689   1.916       .  S
O684        C694   1.280       .  A
O685       Ni690   1.934       .  S
O685        C694   1.284       .  A
O686       Ni690   1.930       .  S
O686        C693   1.283       .  A
O687       Ni690   1.924       .  S
O687        C692   1.280       .  A
O688       Ni690   1.931       .  S
O688        C691   1.284       .  A
Ni689      Ni690   2.380       .  S
C691        C964   1.512   1_455  S
C692        C715   1.507       .  S
C694        C995   1.490   1_455  S
N695        C700   1.364       .  A
N695        C699   1.364       .  A
N695        H727   1.042       .  S
N696        C703   1.347       .  A
N696        C704   1.352       .  A
N697        C702   1.343       .  A
N697        C701   1.346       .  A
N697        H728   1.042       .  S
N698        C705   1.351       .  A
N698        C706   1.358       .  A
C699        C707   1.389       .  A
C699        C715   1.439       .  A
C700        C716   1.437       .  A
C700        C708   1.387       .  A
C701        C709   1.386       .  A
C701        C718   1.399       .  A
C702        C717   1.404       .  A
C702        C710   1.387       .  A
C703        C715   1.417       .  A
C703        C711   1.393       .  A
C704        C718   1.409       .  A
C704        C712   1.380       .  A
C705        C713   1.392       .  A
C705        C716   1.427       .  A
C706        C714   1.383       .  A
C706        C717   1.421       .  A
C707        C708   1.383       .  A
C707        H719   1.079       .  S
C708        H720   1.080       .  S
C709        C710   1.377       .  A
C709        H721   1.082       .  S
C710        H722   1.083       .  S
C711        C712   1.378       .  A
C711        H723   1.079       .  S
C712        H724   1.082       .  S
C713        C714   1.381       .  A
C713        H725   1.079       .  S
C714        H726   1.078       .  S
C717       C1211   1.497       .  S
C718       C1224   1.477       .  S
C729        C730   1.520       .  S
C729        C735   1.522       .  S
C729        C733   1.555       .  S
C729       C1147   1.507       .  S
C730        H737   1.088       .  S
C730        C731   1.361       .  D
C731        C732   1.548       .  S
C731       C1160   1.481       .  S
C732        C736   1.547       .  S
C732        C734   1.527       .  S
C732        H738   1.111       .  S
C733        H739   1.085       .  S
C733        C734   1.377       .  D
C734       C1195   1.470       .  S
C735        H740   1.087       .  S
C735        C736   1.361       .  D
C736       C1176   1.482       .  S
C741        C742   1.518       .  S
C741        C747   1.520       .  S
C741        C745   1.554       .  S
C741       C1131   1.514       .  S
C742        H749   1.087   1_545  S
C742        C743   1.360   1_545  D
C743        C744   1.554       .  S
C743       C1080   1.489       .  S
C744        C748   1.552       .  S
C744        C746   1.536   1_565  S
C744        H750   1.109       .  S
C745        H751   1.085       .  S
C745        C746   1.380       .  D
C746       C1096   1.480       .  S
C747        H752   1.084       .  S
C747        C748   1.358   1_545  D
C748       C1115   1.491       .  S
N753        C758   1.345       .  A
N753        C757   1.347       .  A
N753        H785   1.041       .  S
N754        C761   1.354       .  A
N754        C762   1.349       .  A
N755        C760   1.366       .  A
N755        C759   1.363       .  A
N755        H786   1.040       .  S
N756        C763   1.354       .  A
N756        C764   1.351       .  A
C757        C765   1.388       .  A
C757        C773   1.403       .  A
C758        C774   1.401       .  A
C758        C766   1.387       .  A
C759        C767   1.387       .  A
C759        C776   1.437       .  A
C760        C775   1.438       .  A
C760        C768   1.386       .  A
C761        C773   1.410       .  A
C761        C769   1.380       .  A
C762        C776   1.422       .  A
C762        C770   1.393       .  A
C763        C771   1.380       .  A
C763        C774   1.410       .  A
C764        C772   1.393       .  A
C764        C775   1.425       .  A
C765        C766   1.371       .  A
C765        H777   1.082       .  S
C766        H778   1.082       .  S
C767        C768   1.376       .  A
C767        H779   1.077       .  S
C768        H780   1.077       .  S
C769        C770   1.378       .  A
C769        H781   1.082       .  S
C770        H782   1.080       .  S
C771        C772   1.380       .  A
C771        H783   1.082   1_545  S
C772        H784   1.080   1_545  S
C773       C1144   1.479       .  S
C774       C1099   1.479       .  S
C775        C926   1.509       .  S
C776        C938   1.501       .  S
N787        C792   1.365       .  A
N787        C791   1.363       .  A
N787        H819   1.043       .  S
N788        C795   1.348       .  A
N788        C796   1.353       .  A
N789        C794   1.346       .  A
N789        C793   1.345       .  A
N789        H820   1.043       .  S
N790        C797   1.348       .  A
N790        C798   1.353       .  A
C791        C799   1.385       .  A
C791        C807   1.436       .  A
C792        C808   1.438       .  A
C792        C800   1.387       .  A
C793        C801   1.383       .  A
C793        C810   1.397       .  A
C794        C809   1.407       .  A
C794        C802   1.390       .  A
C795        C807   1.421       .  A
C795        C803   1.394       .  A
C796        C810   1.408       .  A
C796        C804   1.379       .  A
C797        C805   1.396       .  A
C797        C808   1.424       .  A
C798        C806   1.379       .  A
C798        C809   1.408       .  A
C799        C800   1.385       .  A
C799        H811   1.080       .  S
C800        H812   1.080       .  S
C801        C802   1.372       .  A
C801        H813   1.082       .  S
C802        H814   1.078       .  S
C803        C804   1.380       .  A
C803        H815   1.079       .  S
C804        H816   1.082       .  S
C805        C806   1.378       .  A
C805        H817   1.078       .  S
C806        H818   1.082       .  S
C807        C939   1.508       .  S
C808        C923   1.512       .  S
C809       C1083   1.482       .  S
C810       C1163   1.479       .  S
N821        C826   1.348       .  A
N821        C825   1.347       .  A
N821        H853   1.042       .  S
N822        C829   1.352       .  A
N822        C830   1.347       .  A
N823        C828   1.361       .  A
N823        C827   1.362       .  A
N823        H854   1.039       .  S
N824        C831   1.354       .  A
N824        C832   1.348       .  A
C825        C833   1.388   1_556  A
C825        C841   1.407       .  A
C826        C842   1.404       .  A
C826        C834   1.386   1_556  A
C827        C835   1.382       .  A
C827        C844   1.428       .  A
C828        C843   1.428       .  A
C828        C836   1.383       .  A
C829        C841   1.411       .  A
C829        C837   1.385       .  A
C830        C844   1.409       .  A
C830        C838   1.387       .  A
C831        C839   1.384       .  A
C831        C842   1.412       .  A
C832        C840   1.388       .  A
C832        C843   1.415       .  A
C833        C834   1.372       .  A
C833        H845   1.080       .  S
C834        H846   1.080       .  S
C835        C836   1.376       .  A
C835        H847   1.076       .  S
C836        H848   1.076       .  S
C837        C838   1.380       .  A
C837        H849   1.082       .  S
C838        H850   1.083       .  S
C839        C840   1.382       .  A
C839        H851   1.082       .  S
C840        H852   1.083       .  S
C841       C1067   1.482       .  S
C842       C1048   1.484       .  S
C843        C937   1.494       .  S
C844        C925   1.495       .  S
C855        C856   1.526   1_565  S
C855        C861   1.519       .  S
C855        C859   1.554       .  S
C855       C1064   1.511       .  S
C856        H863   1.088       .  S
C856        C857   1.362       .  D
C857        C858   1.544       .  S
C857       C1035   1.480       .  S
C858        C862   1.551       .  S
C858        C860   1.531   1_545  S
C858        H864   1.111       .  S
C859        H865   1.085       .  S
C859        C860   1.379       .  D
C860       C1208   1.484       .  S
C861        H866   1.086       .  S
C861        C862   1.360   1_565  D
C862       C1256   1.478       .  S
N867        C872   1.363       .  A
N867        C871   1.363       .  A
N867        H899   1.042       .  S
N868        C875   1.350       .  A
N868        C876   1.353       .  A
N869        C874   1.345       .  A
N869        C873   1.346       .  A
N869        H900   1.042       .  S
N870        C877   1.349       .  A
N870        C878   1.354       .  A
C871        C879   1.386       .  A
C871        C887   1.434       .  A
C872        C888   1.435       .  A
C872        C880   1.387       .  A
C873        C881   1.387       .  A
C873        C890   1.401       .  A
C874        C889   1.401       .  A
C874        C882   1.386       .  A
C875        C887   1.420       .  A
C875        C883   1.392       .  A
C876        C890   1.411       .  A
C876        C884   1.381       .  A
C877        C885   1.394       .  A
C877        C888   1.423       .  A
C878        C886   1.381       .  A
C878        C889   1.412       .  A
C879        C880   1.379       .  A
C879        H891   1.078       .  S
C880        H892   1.078       .  S
C881        C882   1.375       .  A
C881        H893   1.082       .  S
C882        H894   1.083       .  S
C883        C884   1.381       .  A
C883        H895   1.079   1_545  S
C884        H896   1.082       .  S
C885        C886   1.380       .  A
C885        H897   1.079       .  S
C886        H898   1.082       .  S
C887        C924   1.508       .  S
C888        C940   1.506       .  S
C889       C1019   1.482       .  S
C890       C1032   1.477       .  S
C901        C902   1.520       .  S
C901        C907   1.524       .  S
C901        C905   1.548       .  S
C901       C1243   1.507       .  S
C902        H909   1.086       .  S
C902        C903   1.363       .  D
C903        C904   1.556       .  S
C903       C1051   1.487       .  S
C904        C908   1.551       .  S
C904        C906   1.530       .  S
C904        H910   1.111       .  S
C905        H911   1.086       .  S
C905        C906   1.374       .  D
C906       C1016   1.475       .  S
C907        H912   1.087       .  S
C907        C908   1.364       .  D
C908       C1227   1.487       .  S
O913       Ni921   1.922       .  S
O913        C923   1.282       .  A
O914       Ni921   1.926   1_545  S
O914        C924   1.281       .  A
O915       Ni921   1.922       .  S
O915        C925   1.283       .  A
O916       Ni921   1.936   1_545  S
O916        C926   1.284       .  A
O917       Ni922   1.932   1_545  S
O917        C926   1.283       .  A
O918       Ni922   1.932       .  S
O918        C925   1.283       .  A
O919       Ni922   1.938   1_545  S
O919        C924   1.286       .  A
O920       Ni922   1.945       .  S
O920        C923   1.285       .  A
Ni921      Ni922   2.377       .  S
O927       Ni935   1.916       .  S
O927        C937   1.280       .  A
O928       Ni935   1.924       .  S
O928        C938   1.281       .  A
O929       Ni935   1.931       .  S
O929        C939   1.285       .  A
O930       Ni935   1.930       .  S
O930        C940   1.283       .  A
O931       Ni936   1.928       .  S
O931        C940   1.283       .  A
O932       Ni936   1.937       .  S
O932        C939   1.283       .  A
O933       Ni936   1.933       .  S
O933        C938   1.284       .  A
O934       Ni936   1.936       .  S
O934        C937   1.285       .  A
Ni935      Ni936   2.379       .  S
N941        C946   1.345       .  A
N941        C945   1.343       .  A
N941        H973   1.043       .  S
N942        C949   1.354       .  A
N942        C950   1.349       .  A
N943        C948   1.364       .  A
N943        C947   1.365       .  A
N943        H974   1.042       .  S
N944        C951   1.353       .  A
N944        C952   1.348       .  A
C945        C953   1.388       .  A
C945        C961   1.402       .  A
C946        C962   1.398       .  A
C946        C954   1.385       .  A
C947        C955   1.388   1_655  A
C947        C964   1.439       .  A
C948        C963   1.437       .  A
C948        C956   1.387   1_655  A
C949        C961   1.412       .  A
C949        C957   1.379       .  A
C950        C964   1.424       .  A
C950        C958   1.395       .  A
C951        C959   1.381       .  A
C951        C962   1.411       .  A
C952        C960   1.393       .  A
C952        C963   1.418       .  A
C953        C954   1.377       .  A
C953        H965   1.082       .  S
C954        H966   1.082       .  S
C955        C956   1.383       .  A
C955        H967   1.079       .  S
C956        H968   1.080       .  S
C957        C958   1.377       .  A
C957        H969   1.082       .  S
C958        H970   1.078       .  S
C959        C960   1.376       .  A
C959        H971   1.082       .  S
C960        H972   1.079       .  S
C961       C1192   1.491       .  S
C962       C1128   1.483       .  S
N975        C980   1.362   1_655  A
N975        C979   1.359   1_655  A
N975       H1007   1.040       .  S
N976        C983   1.349       .  A
N976        C984   1.353       .  A
N977        C982   1.346       .  A
N977        C981   1.353       .  A
N977       H1008   1.041       .  S
N978        C985   1.348       .  A
N978        C986   1.352       .  A
C979        C987   1.381       .  A
C979        C995   1.422   1_455  A
C980        C996   1.428   1_455  A
C980        C988   1.385       .  A
C981        C989   1.391       .  A
C981        C998   1.413       .  A
C982        C997   1.406       .  A
C982        C990   1.383       .  A
C983        C995   1.412       .  A
C983        C991   1.388       .  A
C984        C998   1.414       .  A
C984        C992   1.385       .  A
C985        C993   1.388       .  A
C985        C996   1.415       .  A
C986        C994   1.385       .  A
C986        C997   1.413       .  A
C987        C988   1.378       .  A
C987        H999   1.079       .  S
C988       H1000   1.079       .  S
C989        C990   1.371       .  A
C989       H1001   1.079       .  S
C990       H1002   1.083       .  S
C991        C992   1.374       .  A
C991       H1003   1.082       .  S
C992       H1004   1.082       .  S
C993        C994   1.387       .  A
C993       H1005   1.082       .  S
C994       H1006   1.082       .  S
C997       C1112   1.488       .  S
C998       C1179   1.486       .  S
C1009      C1014   1.380       .  A
C1009      C1010   1.407       .  A
C1009      O1015   1.317       .  A
C1010      C1011   1.404       .  A
C1010      H1021   1.082       .  S
C1011      C1020   1.371       .  A
C1011      C1012   1.379       .  A
C1012      C1013   1.403       .  A
C1012      O1018   1.313       .  A
C1013      C1014   1.400       .  A
C1013      H1022   1.083       .  S
C1014      C1017   1.365       .  A
O1015      C1016   1.332       .  A
C1016      C1017   1.390       .  A
C1017      H1023   1.082       .  S
O1018      C1019   1.332       .  A
C1019      C1020   1.392       .  A
C1020      H1024   1.082       .  S
C1025      C1030   1.379       .  A
C1025      C1026   1.400       .  A
C1025      O1031   1.314       .  A
C1026      C1027   1.399       .  A
C1026      H1037   1.082       .  S
C1027      C1036   1.358       .  A
C1027      C1028   1.378       .  A
C1028      C1029   1.409       .  A
C1028      O1034   1.321       .  A
C1029      C1030   1.407       .  A
C1029      H1038   1.082       .  S
C1030      C1033   1.369       .  A
O1031      C1032   1.329       .  A
C1032      C1033   1.395       .  A
C1033      H1039   1.082       .  S
O1034      C1035   1.335       .  A
C1035      C1036   1.393       .  A
C1036      H1040   1.083       .  S
C1041      C1046   1.379       .  A
C1041      C1042   1.401       .  A
C1041      O1047   1.318   1_554  A
C1042      H1053   1.082   1_554  S
C1043      C1052   1.356       .  A
C1043      C1044   1.378       .  A
C1044      O1050   1.328       .  A
C1045      C1046   1.409       .  A
C1045      H1054   1.082       .  S
C1046      C1049   1.367       .  A
O1047      C1048   1.331       .  A
C1048      C1049   1.397   1_556  A
C1049      H1055   1.082       .  S
O1050      C1051   1.336       .  A
C1051      C1052   1.392       .  A
C1052      H1056   1.083       .  S
C1057      C1062   1.379       .  A
C1057      O1063   1.317       .  A
C1058      C1059   1.404       .  A
C1058      H1069   1.082   1_554  S
C1059      C1068   1.363   1_554  A
C1059      C1060   1.378       .  A
C1060      O1066   1.316       .  A
C1061      C1062   1.402       .  A
C1061      H1070   1.082       .  S
C1062      C1065   1.362       .  A
O1063      C1064   1.333       .  A
C1064      C1065   1.394       .  A
C1065      H1071   1.083       .  S
O1066      C1067   1.330   1_554  A
C1067      C1068   1.394       .  A
C1068      H1072   1.083       .  S
C1073      C1078   1.378       .  A
C1073      C1074   1.399       .  A
C1073      O1079   1.309       .  A
C1074      H1085   1.082       .  S
C1075      C1084   1.356       .  A
C1075      C1076   1.377       .  A
C1076      C1077   1.412   1_556  A
C1076      O1082   1.322       .  A
C1077      H1086   1.082       .  S
C1078      C1081   1.376       .  A
O1079      C1080   1.331       .  A
C1080      C1081   1.398       .  A
C1081      H1087   1.082       .  S
O1082      C1083   1.336       .  A
C1083      C1084   1.388       .  A
C1084      H1088   1.082       .  S
C1089      C1094   1.380       .  A
C1089      C1090   1.405       .  A
C1089      O1095   1.326       .  A
C1090      C1091   1.408       .  A
C1090      H1101   1.082       .  S
C1091      C1100   1.359       .  A
C1091      C1092   1.380       .  A
C1092      C1093   1.399       .  A
C1092      O1098   1.321       .  A
C1093      C1094   1.401       .  A
C1093      H1102   1.082   1_545  S
C1094      C1097   1.352       .  A
O1095      C1096   1.333       .  A
C1096      C1097   1.391       .  A
C1097      H1103   1.082   1_545  S
O1098      C1099   1.330       .  A
C1099      C1100   1.396       .  A
C1100      H1104   1.083       .  S
C1105      C1110   1.381       .  A
C1105      C1106   1.399   1_565  A
C1105      O1111   1.325       .  A
C1106      C1107   1.403   1_545  A
C1106      H1117   1.082       .  S
C1107      C1116   1.349   1_565  A
C1107      C1108   1.380       .  A
C1108      C1109   1.405       .  A
C1108      O1114   1.329       .  A
C1109      C1110   1.409       .  A
C1109      H1118   1.082       .  S
C1110      C1113   1.356       .  A
O1111      C1112   1.330       .  A
C1112      C1113   1.397       .  A
C1113      H1119   1.083       .  S
O1114      C1115   1.333       .  A
C1115      C1116   1.396   1_565  A
C1116      H1120   1.082       .  S
C1121      C1126   1.377       .  A
C1121      C1122   1.408       .  A
C1121      O1127   1.322       .  A
C1122      C1123   1.408       .  A
C1122      H1133   1.082       .  S
C1124      C1125   1.397       .  A
C1124      O1130   1.309       .  A
C1125      H1134   1.083       .  S
C1126      C1129   1.354       .  A
O1127      C1128   1.335       .  A
C1128      C1129   1.390       .  A
C1129      H1135   1.083       .  S
O1130      C1131   1.330       .  A
C1131      C1132   1.398       .  A
C1137      C1142   1.379       .  A
C1137      C1138   1.405       .  A
C1137      O1143   1.315       .  A
C1138      C1139   1.401       .  A
C1138      H1149   1.082       .  S
C1139      C1148   1.366       .  A
C1139      C1140   1.378       .  A
C1140      C1141   1.405       .  A
C1140      O1146   1.315       .  A
C1141      C1142   1.402       .  A
C1141      H1150   1.082       .  S
C1142      C1145   1.367       .  A
O1143      C1144   1.332       .  A
C1144      C1145   1.392       .  A
C1145      H1151   1.082       .  S
O1146      C1147   1.334       .  A
C1147      C1148   1.393       .  A
C1148      H1152   1.082       .  S
C1153      C1158   1.379       .  A
C1153      O1159   1.324       .  A
C1154      C1155   1.408       .  A
C1154      H1165   1.082       .  S
C1155      C1164   1.370       .  A
C1155      C1156   1.379       .  A
C1156      O1162   1.315       .  A
C1157      C1158   1.400       .  A
C1157      H1166   1.083       .  S
C1158      C1161   1.358       .  A
O1159      C1160   1.335       .  A
C1160      C1161   1.393       .  A
C1161      H1167   1.083       .  S
O1162      C1163   1.331       .  A
C1163      C1164   1.395       .  A
C1164      H1168   1.082       .  S
C1169      C1174   1.379       .  A
C1169      C1170   1.397       .  A
C1169      O1175   1.310       .  A
C1170      C1171   1.395       .  A
C1170      H1181   1.083       .  S
C1171      C1180   1.356       .  A
C1171      C1172   1.379       .  A
C1172      C1173   1.410       .  A
C1172      O1178   1.321       .  A
C1173      C1174   1.408       .  A
C1173      H1182   1.082       .  S
C1174      C1177   1.372       .  A
O1175      C1176   1.329       .  A
C1176      C1177   1.396       .  A
C1177      H1183   1.082       .  S
O1178      C1179   1.334       .  A
C1179      C1180   1.388       .  A
C1180      H1184   1.083       .  S
C1185      C1190   1.377       .  A
C1185      C1186   1.404       .  A
C1185      O1191   1.316       .  A
C1186      H1197   1.082       .  S
C1187      C1196   1.365       .  A
C1187      C1188   1.378       .  A
C1188      C1189   1.406       .  A
C1188      O1194   1.317       .  A
C1189      H1198   1.082       .  S
C1190      C1193   1.363       .  A
O1191      C1192   1.333       .  A
C1192      C1193   1.396       .  A
C1193      H1199   1.082       .  S
O1194      C1195   1.333       .  A
C1195      C1196   1.391       .  A
C1196      H1200   1.082       .  S
C1201      C1206   1.379       .  A
C1201      C1202   1.409       .  A
C1201      O1207   1.317       .  A
C1202      C1203   1.405       .  A
C1202      H1213   1.082   1_565  S
C1203      C1212   1.373       .  A
C1203      C1204   1.377       .  A
C1204      C1205   1.405       .  A
C1204      O1210   1.313       .  A
C1205      C1206   1.401       .  A
C1205      H1214   1.082       .  S
C1206      C1209   1.368       .  A
O1207      C1208   1.334       .  A
C1208      C1209   1.392       .  A
C1209      H1215   1.082       .  S
O1210      C1211   1.335       .  A
C1211      C1212   1.396       .  A
C1212      H1216   1.081       .  S
C1217      C1222   1.379       .  A
C1217      C1218   1.399       .  A
C1217      O1223   1.314       .  A
C1218      C1219   1.400       .  A
C1218      H1229   1.082       .  S
C1219      C1228   1.357       .  A
C1219      C1220   1.378       .  A
C1220      C1221   1.410       .  A
C1220      O1226   1.323       .  A
C1221      C1222   1.408       .  A
C1221      H1230   1.082       .  S
C1222      C1225   1.369       .  A
O1223      C1224   1.329       .  A
C1224      C1225   1.395       .  A
C1225      H1231   1.082       .  S
O1226      C1227   1.335       .  A
C1227      C1228   1.395       .  A
C1228      H1232   1.083       .  S
C1233      C1238   1.379       .  A
C1233      C1234   1.403       .  A
C1233      O1239   1.317       .  A
C1235      C1244   1.360       .  A
C1235      C1236   1.379       .  A
C1236      O1242   1.317       .  A
C1237      C1238   1.402       .  A
C1237      H1246   1.082   1_554  S
C1238      C1241   1.362   1_554  A
O1239      C1240   1.331   1_554  A
C1240      C1241   1.392       .  A
C1241      H1247   1.082       .  S
O1242      C1243   1.331       .  A
C1243      C1244   1.394       .  A
C1244      H1248   1.083       .  S
C1249      C1254   1.380       .  A
C1249      C1250   1.407       .  A
C1249      O1255   1.324       .  A
C1250      H1261   1.082       .  S
C1251      C1260   1.366       .  A
C1251      C1252   1.381       .  A
C1252      C1253   1.398       .  A
C1252      O1258   1.314   1_554  A
C1253      H1262   1.082   1_554  S
C1254      C1257   1.354       .  A
O1255      C1256   1.333       .  A
C1256      C1257   1.391       .  A
C1257      H1263   1.083       .  S
O1258      C1259   1.327       .  A
C1259      C1260   1.396   1_556  A
C1260      H1264   1.082       .  S
