geometry optimzed in LAMMPS
_audit_creation_date              2020-11-30 
_audit_creation_method            'lammps2cif' 
_symmetry_space_group_name_H-M    'P1' 
_symmetry_Int_Tables_number       1 
_symmetry_cell_setting            triclinic 
loop_ 
_symmetry_equiv_pos_as_xyz 
  x,y,z 
_cell_length_a                    41.25763991 
_cell_length_b                    41.04247794513343 
_cell_length_c                    30.860100374779954 
_cell_angle_alpha                 88.91910703542163 
_cell_angle_beta                  90.3209697164389 
_cell_angle_gamma                 120.58539353528204 
loop_ 
_atom_site_label 
_atom_site_type_symbol 
_atom_site_fract_x 
_atom_site_fract_y 
_atom_site_fract_z 
_atom_site_charge 
O1          O  0.42064942  0.20511217  0.66598948    -0.81400
C2          C  0.39166698  0.17914762  0.49312298     0.97900
O3          O  0.37840491  0.16146678  0.52855150    -0.70600
O4          O  0.37262403  0.14400939  0.61335806    -0.74200
Al5        Al  0.37990302  0.18723048  0.57927369     1.49000
C6          C  0.39416826  0.13227909  0.62563944     0.93200
O7          O  0.49337159  0.20598762  0.58409863    -0.80400
O8          O  0.49779711  0.28241663  0.56860215    -0.73900
Al9        Al  0.45462073  0.20585076  0.62181918     1.90100
O10         O  0.47969613  0.21995193  0.52070699    -0.73000
O11         O  0.43076161  0.27402592  0.54318434    -0.72900
O12         O  0.41786774  0.21366195  0.49206467    -0.78500
O13         O  0.37393724  0.22423036  0.54684317    -0.76700
O14         O  0.42995715  0.21278504  0.57889350    -1.12900
O15         O  0.37778989  0.21118489  0.62933130    -0.72000
C16         C  0.39322802  0.21108293  0.66457758     0.98700
C17         C  0.49785654  0.20894381  0.54306503     0.95100
Al18       Al  0.45453836  0.24493703  0.53505433     1.55600
O19         O  0.42889420  0.15225504  0.61871380    -0.76700
C20         C  0.39561594  0.25908562  0.53857852     0.99200
C21         C  0.50479704  0.28394426  0.60878645     0.94100
O22         O  0.48328807  0.25713951  0.63346758    -0.82000
O23         O  0.28936767  0.20783467  0.82480040    -0.81400
C24         C  0.29191012  0.17629806  0.99550814     0.97900
O25         O  0.28917266  0.16148073  0.95924426    -0.70600
O26         O  0.27747559  0.14836818  0.87555193    -0.74200
Al27       Al  0.31437955  0.18996539  0.90955311     1.49000
C28         C  0.24323690  0.13600517  0.86684491     0.93200
O29         O  0.22073595  0.21204074  0.91075853    -0.80400
O30         O  0.29265587  0.28360309  0.92419273    -0.73900
Al31       Al  0.25759582  0.20952057  0.87104440     1.90100
O32         O  0.24757100  0.21950814  0.97358503    -0.73000
O33         O  0.35183998  0.27437245  0.94851571    -0.72900
O34         O  0.30231684  0.21117147  0.99783753    -0.78500
O35         O  0.35795735  0.22472945  0.94347155    -0.76700
O36         O  0.29004956  0.21514533  0.91228453    -1.12900
O37         O  0.34052878  0.21687157  0.85916333    -0.72000
C38         C  0.32330007  0.21475079  0.82441777     0.98700
C39         C  0.22050276  0.21614943  0.95162431     0.95100
Al40       Al  0.29820610  0.24494748  0.95691855     1.55600
O41         O  0.22855178  0.15547786  0.87601017    -0.76700
C42         C  0.37108184  0.25863486  0.95484399     0.99200
C43         C  0.28609674  0.28637754  0.88438059     0.94100
O44         O  0.28152374  0.26127542  0.85849244    -0.82000
O45         O  0.20813045  0.43977908  0.83586914    -0.81400
C46         C  0.21483859  0.39889784  0.66266322     0.97900
O47         O  0.19423470  0.37837583  0.69339576    -0.70600
O48         O  0.22962875  0.37837828  0.76371166    -0.74200
Al49       Al  0.18838700  0.38562318  0.75240984     1.49000
C50         C  0.25150609  0.39141754  0.79563182     0.93200
O51         O  0.29074044  0.48442383  0.75587152    -0.80400
O52         O  0.19632591  0.48802190  0.73949792    -0.73900
Al53       Al  0.24740735  0.46064125  0.79350933     1.90100
O54         O  0.26389268  0.50059746  0.70496323    -0.73000
O55         O  0.16121455  0.42457317  0.68773028    -0.72900
O56         O  0.22939762  0.43466745  0.66429781    -0.78500
O57         O  0.14277216  0.38521826  0.74218948    -0.76700
O58         O  0.21633579  0.43537150  0.74988512    -1.12900
O59         O  0.17660043  0.38213742  0.81136962    -0.72000
C60         C  0.18338029  0.40524013  0.84094558     0.98700
C61         C  0.29306865  0.50365980  0.72226269     0.95100
Al62       Al  0.21298218  0.46028314  0.70344433     1.55600
O63         O  0.26051466  0.42346409  0.80987300    -0.76700
C64         C  0.13576897  0.39481146  0.70605241     0.99200
C65         C  0.21386675  0.50663339  0.77296781     0.94100
O66         O  0.23981544  0.50266716  0.78938393    -0.82000
O67         O  0.08299277  0.29672427  0.17376967    -0.81400
C68         C  0.10977723  0.32565590  0.00055762     0.97900
O69         O  0.12220127  0.34204359  0.03626646    -0.70600
O70         O  0.13002006  0.35821356  0.11973820    -0.74200
Al71       Al  0.12364408  0.31672363  0.08662233     1.49000
C72         C  0.10850264  0.37007003  0.12963354     0.93200
O73         O  0.01053496  0.29553844  0.09125856    -0.80400
O74         O  0.01406679  0.21442957  0.08379038    -0.73900
Al75       Al  0.04859648  0.29596482  0.12885791     1.90100
O76         O  0.01692446  0.27199326  0.03098602    -0.73000
O77         O  0.08175395  0.23153027  0.04974480    -0.72900
O78         O  0.08404810  0.29066006  0.99979302    -0.78500
O79         O  0.13417990  0.28489755  0.05308775    -0.76700
O80         O  0.07376952  0.28872058  0.08692362    -1.12900
O81         O  0.12710167  0.29246079  0.13769735    -0.72000
C82         C  0.11127754  0.29187940  0.17301739     0.98700
C83         C  0.00142674  0.28635701  0.05217506     0.95100
Al84       Al  0.05086718  0.25497554  0.04490861     1.55600
O85         O  0.07389261  0.34968008  0.12339168    -0.76700
C86         C  0.11698787  0.25045468  0.04389334     0.99200
C87         C  0.00464339  0.21471745  0.12294793     0.94100
O88         O  0.01873227  0.24539356  0.14222833    -0.82000
O89         O  0.21770132  0.29975859  0.33543871    -0.81400
C90         C  0.21490486  0.31672429  0.51044825     0.97900
O91         O  0.21262930  0.33267915  0.47594602    -0.70600
O92         O  0.22407440  0.35443822  0.39351082    -0.74200
Al93       Al  0.18986788  0.30917316  0.42347420     1.49000
C94         C  0.25861123  0.37068677  0.38542505     0.93200
O95         O  0.29007928  0.30068011  0.41754563    -0.80400
O96         O  0.20701532  0.21438832  0.42254547    -0.73900
Al97       Al  0.25119879  0.29906437  0.38044242     1.90100
O98         O  0.25901312  0.26993982  0.47551014    -0.73000
O99         O  0.15412253  0.22321469  0.45963442    -0.72900
O100        O  0.20899524  0.28295504  0.50985660    -0.78500
O101        O  0.14697308  0.27183065  0.45388314    -0.76700
O102        O  0.21647986  0.28589836  0.42227222    -1.12900
O103        O  0.16567710  0.28714399  0.37048868    -0.72000
C104        C  0.18333276  0.29143006  0.33539170     0.98700
C105        C  0.28971987  0.28865940  0.45568013     0.95100
Al106      Al  0.20810149  0.25075726  0.46308137     1.55600
O107        O  0.27531380  0.35240223  0.38906978    -0.76700
C108        C  0.13369551  0.23752714  0.46308123     0.99200
C109        C  0.21816202  0.21723251  0.38360901     0.94100
O110        O  0.23435354  0.24899348  0.36457056    -0.82000
O111        O  0.29535191  0.07751538  0.16314513    -0.81400
C112        C  0.31962131  0.11184385  0.33297945     0.97900
O113        O  0.33584607  0.12683860  0.29739431    -0.70600
O114        O  0.35317822  0.12967408  0.21441955    -0.74200
Al115      Al  0.30998747  0.12234227  0.24571959     1.49000
C116        C  0.36746676  0.10937017  0.20885324     0.93200
O117        O  0.29613539  0.01064262  0.25329270    -0.80400
O118        O  0.21304033  0.01150462  0.25690295    -0.73900
Al119      Al  0.29473261  0.04594867  0.21136774     1.90100
O120        O  0.26978147  0.01877236  0.30939100    -0.73000
O121        O  0.22563828  0.07672828  0.28439171    -0.72900
O122        O  0.28562720  0.08456963  0.33505070    -0.78500
O123        O  0.27527438  0.13209671  0.27621364    -0.76700
O124        O  0.28519866  0.07213037  0.25003498    -1.12900
O125        O  0.28513914  0.11939611  0.19415606    -0.72000
C126        C  0.28797046  0.10413250  0.16030716     0.98700
C127        C  0.28657323  0.00392629  0.29282402     0.95100
Al128      Al  0.25149433  0.04961361  0.29257993     1.55600
O129        O  0.34832198  0.07446326  0.21695030    -0.76700
C130        C  0.24156437  0.11186259  0.28814786     0.99200
C131        C  0.21314690  0.00054201  0.21893802     0.94100
O132        O  0.24354112  0.01317340  0.19829398    -0.82000
C133        C  0.22306628  0.12979229  0.31138692    -0.05000
C134        C  0.21614079  0.15596994  0.28964131    -0.02100
C135        C  0.21238305  0.18319504  0.31308697     0.02900
C136        C  0.21426958  0.18376460  0.35928756    -0.05000
C137        C  0.21634279  0.15408030  0.38102628    -0.02100
C138        C  0.21991293  0.12685656  0.35709648     0.02900
C139        C  0.21128932  0.15369713  0.24303421     0.37500
C140        C  0.21878280  0.15343096  0.42789967     0.37500
C141        C  0.22239181  0.09695244  0.37983028     0.35900
C142        C  0.20829999  0.21150528  0.28882161     0.35900
N143        N  0.22388309  0.07293678  0.39827523    -0.38900
N144        N  0.20582984  0.23427531  0.26882204    -0.38900
N145        N  0.22113824  0.15296325  0.46527009    -0.38300
N146        N  0.20607792  0.15117277  0.20604580    -0.38300
C147        C  0.27773118  0.41046978  0.36851185    -0.05000
C148        C  0.26847745  0.43618866  0.38629549    -0.02100
C149        C  0.27937486  0.47076181  0.36498498     0.02900
C150        C  0.29191823  0.47663059  0.32111418    -0.05000
C151        C  0.30435753  0.45278395  0.30471073    -0.02100
C152        C  0.29872292  0.42066570  0.32930859     0.02900
C153        C  0.24375089  0.42578462  0.42375356     0.37500
C154        C  0.32175994  0.46021112  0.26224315     0.37500
C155        C  0.31065603  0.39591390  0.31169658     0.35900
C156        C  0.27648940  0.99951782  0.38865862     0.35900
N157        N  0.32027496  0.37621853  0.29768386    -0.38900
N158        N  0.27418674  0.02220943  0.40788824    -0.38900
N159        N  0.33569708  0.46603044  0.22834468    -0.38300
N160        N  0.22300620  0.41780089  0.45251613    -0.38300
C161        C  0.12460442  0.40646376  0.15241700    -0.05000
C162        C  0.12389637  0.40630678  0.19823151    -0.02100
C163        C  0.15106238  0.43826732  0.22102716     0.02900
C164        C  0.17771567  0.47112020  0.19790769    -0.05000
C165        C  0.17307559  0.47324463  0.15261828    -0.02100
C166        C  0.14776429  0.44059082  0.12973098     0.02900
C167        C  0.09730906  0.37224978  0.22194959     0.37500
C168        C  0.19338788  0.00924162  0.12967285     0.37500
C169        C  0.14635937  0.44163929  0.08276456     0.35900
C170        C  0.15315112  0.43608436  0.26781941     0.35900
N171        N  0.14515705  0.44234025  0.04529825    -0.37100
N172        N  0.15477990  0.43432146  0.30517283    -0.38900
N173        N  0.20820394  0.03796317  0.11113287    -0.38300
N174        N  0.07607385  0.34530635  0.24122347    -0.38300
C175        C  0.40651876  0.12770470  0.19125830    -0.05000
C176        C  0.41338450  0.12101113  0.14847127    -0.02100
C177        C  0.44702740  0.14749293  0.12640395     0.02900
C178        C  0.47466967  0.18036864  0.14767895    -0.05000
C179        C  0.47003191  0.18278445  0.19328877    -0.02100
C180        C  0.43582465  0.15723265  0.21429545     0.02900
C181        C  0.38524677  0.08749744  0.12664958     0.37500
C182        C  0.49946597  0.21232632  0.21921872     0.37500
C183        C  0.43021746  0.16190171  0.25971978     0.35900
C184        C  0.95200976  0.14144433  0.08146852     0.35900
N185        N  0.42579736  0.16562368  0.29589186    -0.38900
N186        N  0.95590529  0.13646123  0.04556067    -0.38900
N187        N  0.52232262  0.23587055  0.24040417    -0.38300
N188        N  0.36324734  0.06033672  0.10939548    -0.38300
C189        C  0.12930288  0.29039829  0.21423568    -0.05000
C190        C  0.11842633  0.25592935  0.23653309    -0.02100
C191        C  0.13636983  0.25584978  0.27592514     0.02900
C192        C  0.16454865  0.29032996  0.29362289    -0.05000
C193        C  0.17427336  0.32459727  0.27168934    -0.02100
C194        C  0.15863230  0.32443287  0.23105098     0.02900
C195        C  0.08980915  0.22061705  0.21817341     0.37500
C196        C  0.19750933  0.36056175  0.29225224     0.37500
C197        C  0.17442930  0.35944745  0.20582176     0.35900
C198        C  0.12584494  0.22045588  0.29830465     0.35900
N199        N  0.18863421  0.38764537  0.18614592    -0.38900
N200        N  0.11765034  0.19225864  0.31623097    -0.38900
N201        N  0.21424934  0.39010969  0.30747059    -0.38300
N202        N  0.06702855  0.19241929  0.20338017    -0.38300
C203        C  0.12779638  0.34763721  0.95968089    -0.05000
C204        C  0.10815274  0.33795157  0.91984046    -0.02100
C205        C  0.12499898  0.36024789  0.88229995     0.02900
C206        C  0.16311226  0.38972426  0.88262008    -0.05000
C207        C  0.18324640  0.39902147  0.92181541    -0.02100
C208        C  0.16578292  0.37841988  0.96015937     0.02900
C209        C  0.07115238  0.30428756  0.91635062     0.37500
C210        C  0.22278873  0.42836006  0.92241323     0.37500
C211        C  0.18867102  0.38730686  0.99898043     0.35900
C212        C  0.10266911  0.35303044  0.84327754     0.35900
N213        N  0.20725296  0.39453607  0.02960920    -0.38900
N214        N  0.08445719  0.34731794  0.81256076    -0.38900
N215        N  0.25429312  0.45165748  0.92297261    -0.38300
N216        N  0.04175946  0.27737278  0.91314766    -0.38300
C217        C  0.22232484  0.33799122  0.55200883    -0.05000
C218        C  0.20883687  0.31939021  0.59244657    -0.02100
C219        C  0.20992207  0.34005526  0.62917891     0.02900
C220        C  0.22039556  0.37905198  0.62505768    -0.05000
C221        C  0.23541159  0.39761106  0.58472333    -0.02100
C222        C  0.24020085  0.37791963  0.55063632     0.02900
C223        C  0.19473406  0.27916647  0.59726502     0.37500
C224        C  0.24431826  0.43620979  0.57667981     0.37500
C225        C  0.26773830  0.39905028  0.51700236     0.35900
C226        C  0.20031160  0.32035203  0.67096764     0.35900
N227        N  0.29103346  0.41576051  0.49132898    -0.38900
N228        N  0.19269118  0.30421705  0.70395822    -0.38900
N229        N  0.25118770  0.46691359  0.56984593    -0.38300
N230        N  0.18411728  0.24728990  0.60225002    -0.38300
C231        C  0.28507703  0.15362506  0.03602902    -0.05000
C232        C  0.27643858  0.16567779  0.07445821    -0.02100
C233        C  0.28038987  0.15178468  0.11466148     0.02900
C234        C  0.28480242  0.11954463  0.11711757    -0.05000
C235        C  0.28773633  0.10368207  0.07778163    -0.02100
C236        C  0.29000746  0.12188387  0.03775728     0.02900
C237        C  0.26279811  0.19210927  0.07325532     0.37500
C238        C  0.28839443  0.06864538  0.07746722     0.37500
C239        C  0.29833335  0.10803694  0.99883251     0.35900
C240        C  0.28332538  0.17374218  0.15243010     0.35900
N241        N  0.30501844  0.09689906  0.96796340    -0.38900
N242        N  0.28685355  0.19223717  0.18195484    -0.38900
N243        N  0.28801464  0.04027956  0.07642404    -0.38300
N244        N  0.25164194  0.21289214  0.07311506    -0.38300
C245        C  0.19160378  0.22177511  0.97546368    -0.05000
C246        C  0.20434091  0.24899764  0.00890756    -0.02100
C247        C  0.17878489  0.25300752  0.03513859     0.02900
C248        C  0.14009407  0.23499077  0.02456662    -0.05000
C249        C  0.12689321  0.20804696  0.99087894    -0.02100
C250        C  0.15232827  0.20059403  0.96755472     0.02900
C251        C  0.24418266  0.27576274  0.01510178     0.37500
C252        C  0.08744074  0.18862431  0.97935598     0.37500
C253        C  0.13802118  0.17090915  0.93589135     0.35900
C254        C  0.19299160  0.27634376  0.07342272     0.35900
N255        N  0.12661754  0.14697542  0.91081657    -0.38900
N256        N  0.20444709  0.29492459  0.10381763    -0.38900
N257        N  0.05589958  0.17311502  0.97012194    -0.38300
N258        N  0.27556508  0.29792789  0.02081775    -0.38300
C259        C  0.40660003  0.27699009  0.98094759    -0.05000
C260        C  0.44220287  0.29269526  0.96096776    -0.02100
C261        C  0.47442542  0.30172352  0.98624144     0.02900
C262        C  0.47072434  0.29016742  0.03033984    -0.05000
C263        C  0.43589632  0.27809613  0.05113077    -0.02100
C264        C  0.40461555  0.27353114  0.02680040     0.02900
C265        C  0.44566649  0.29946266  0.91453403     0.37500
C266        C  0.43159221  0.26893125  0.09712446     0.37500
C267        C  0.37073562  0.26588303  0.04935252     0.35900
C268        C  0.01159456  0.32671960  0.96856346     0.35900
N269        N  0.34460531  0.26117400  0.06845473    -0.38900
N270        N  0.04114326  0.34864024  0.95536106    -0.38900
N271        N  0.42807508  0.26155780  0.13382517    -0.38300
N272        N  0.44838334  0.30470943  0.87740571    -0.38300
C273        C  0.22213044  0.09985733  0.84266644    -0.05000
C274        C  0.22017846  0.10044733  0.79674500    -0.02100
C275        C  0.21373217  0.06843342  0.77274100     0.02900
C276        C  0.20643344  0.03479206  0.79452442    -0.05000
C277        C  0.20118957  0.03252616  0.84016316    -0.02100
C278        C  0.21080993  0.06522424  0.86416581     0.02900
C279        C  0.22820589  0.13499370  0.77402543     0.37500
C280        C  0.18458107  0.49641034  0.86274837     0.37500
C281        C  0.21042594  0.06361332  0.91120128     0.35900
C282        C  0.21766871  0.07116044  0.72600177     0.35900
N283        N  0.21024384  0.06242797  0.94870583    -0.38900
N284        N  0.22085858  0.07330077  0.68866090    -0.38900
N285        N  0.17004478  0.46833887  0.88259300    -0.38300
N286        N  0.23444765  0.16238347  0.75551168    -0.38300
C287        C  0.27778629  0.31557986  0.86727345    -0.05000
C288        C  0.24117715  0.30333266  0.85118905    -0.02100
C289        C  0.23293762  0.32875072  0.82995539     0.02900
C290        C  0.26171637  0.36626703  0.82040600    -0.05000
C291        C  0.29808894  0.37925106  0.83782841    -0.02100
C292        C  0.30591670  0.35402101  0.86173686     0.02900
C293        C  0.21091149  0.26419049  0.85502814     0.37500
C294        C  0.32755446  0.41820936  0.83053259     0.37500
C295        C  0.34304441  0.36716743  0.87942447     0.35900
C296        C  0.19371302  0.31598867  0.82060800     0.35900
N297        N  0.37259654  0.37754263  0.89386402    -0.38900
N298        N  0.16198395  0.30432965  0.81477106    -0.38900
N299        N  0.35104819  0.44937098  0.82470566    -0.38300
N300        N  0.18494063  0.23386855  0.85557820    -0.38300
C301        C  0.37856748  0.09705013  0.65266367    -0.05000
C302        C  0.36010441  0.06121042  0.63347890    -0.02100
C303        C  0.33726408  0.02860541  0.65924831     0.02900
C304        C  0.32978987  0.03214454  0.70289317    -0.05000
C305        C  0.35205959  0.06697780  0.72326834    -0.02100
C306        C  0.37765229  0.09914993  0.69845604     0.02900
C307        C  0.36397943  0.05804398  0.58736781     0.37500
C308        C  0.34691746  0.07009116  0.76913580     0.37500
C309        C  0.40144008  0.13448978  0.72019509     0.35900
C310        C  0.32310632  0.49126119  0.64207434     0.35900
N311        N  0.42030193  0.16200653  0.73889855    -0.38900
N312        N  0.31343798  0.46135196  0.62939109    -0.38900
N313        N  0.34272130  0.07228464  0.80578449    -0.38300
N314        N  0.36711374  0.05558605  0.55051885    -0.38300
C315        C  0.10069359  0.36761851  0.68181221    -0.05000
C316        C  0.08752489  0.32826707  0.68513534    -0.02100
C317        C  0.05955305  0.30265250  0.65720437     0.02900
C318        C  0.04020514  0.31433917  0.62889391    -0.05000
C319        C  0.05256575  0.35329313  0.62531680    -0.02100
C320        C  0.08338795  0.37997591  0.65076713     0.02900
C321        C  0.10246424  0.31269650  0.71668070     0.37500
C322        C  0.03329468  0.36574163  0.59605721     0.37500
C323        C  0.09643550  0.41994856  0.64580071     0.35900
C324        C  0.05169194  0.26385462  0.65720301     0.35900
N325        N  0.10692781  0.45189812  0.64172216    -0.38900
N326        N  0.04657438  0.23341025  0.65836807    -0.38900
N327        N  0.51789523  0.37553572  0.57247651    -0.38300
N328        N  0.11271732  0.29833247  0.74132108    -0.38300
C329        C  0.37575848  0.21346592  0.70496576    -0.05000
C330        C  0.38790752  0.24833208  0.72525484    -0.02100
C331        C  0.36989799  0.24936000  0.76374620     0.02900
C332        C  0.34149952  0.21524276  0.78309141    -0.05000
C333        C  0.33208080  0.18050084  0.76425945    -0.02100
C334        C  0.34602007  0.17994638  0.72326083     0.02900
C335        C  0.41826135  0.28287385  0.70603044     0.37500
C336        C  0.31319168  0.14544515  0.78920029     0.37500
C337        C  0.32840759  0.14486171  0.69955227     0.35900
C338        C  0.38150494  0.28506503  0.78434793     0.35900
N339        N  0.31301219  0.11678386  0.68089478    -0.38900
N340        N  0.39083776  0.31352527  0.80099678    -0.38900
N341        N  0.30033138  0.11713139  0.80853018    -0.38300
N342        N  0.44253787  0.31028552  0.69041145    -0.38300
C343        C  0.09385054  0.21569457  0.47840120    -0.05000
C344        C  0.06635179  0.21830117  0.45407417    -0.02100
C345        C  0.03253909  0.21106031  0.47378917     0.02900
C346        C  0.02668983  0.20319242  0.51936828    -0.05000
C347        C  0.05103484  0.19341106  0.54119159    -0.02100
C348        C  0.08441017  0.19939890  0.52048664     0.02900
C349        C  0.07335878  0.22941234  0.40854572     0.37500
C350        C  0.54149055  0.17615142  0.58414474     0.37500
C351        C  0.10891608  0.18876069  0.54225097     0.35900
C352        C  0.00450104  0.21240824  0.44631531     0.35900
N353        N  0.12786497  0.17915546  0.55911194    -0.38900
N354        N  0.98242276  0.21360086  0.42407770    -0.38900
N355        N  0.53373162  0.16161566  0.61805944    -0.38300
N356        N  0.07864723  0.23819666  0.37226116    -0.38300
C357        C  0.37849609  0.28064922  0.52037012    -0.05000
C358        C  0.38254804  0.29056095  0.47577405    -0.02100
C359        C  0.35553835  0.29682716  0.45447651     0.02900
C360        C  0.32471648  0.29398256  0.47803948    -0.05000
C361        C  0.32508206  0.29067411  0.52403920    -0.02100
C362        C  0.35102560  0.28285119  0.54474487     0.02900
C363        C  0.41210019  0.29024308  0.45088346     0.37500
C364        C  0.29843712  0.29460876  0.55060009     0.37500
C365        C  0.34827521  0.27501281  0.59110204     0.35900
C366        C  0.35830938  0.30344096  0.40799291     0.35900
N367        N  0.34604063  0.26858682  0.62799788    -0.38900
N368        N  0.36068098  0.30880267  0.37087965    -0.38900
N369        N  0.27753401  0.29780779  0.57237524    -0.38300
N370        N  0.43563054  0.28991575  0.43099983    -0.38300
C371        C  0.37341738  0.16084540  0.45246115    -0.05000
C372        C  0.38091820  0.13460991  0.43270248    -0.02100
C373        C  0.36296789  0.11785724  0.39340531     0.02900
C374        C  0.33946368  0.12914689  0.37311914    -0.05000
C375        C  0.33427532  0.15722193  0.39152362    -0.02100
C376        C  0.34860179  0.17060804  0.43266599     0.02900
C377        C  0.40675513  0.12485360  0.45283160     0.37500
C378        C  0.31659696  0.17453294  0.36711950     0.37500
C379        C  0.33464831  0.19139633  0.45582111     0.35900
C380        C  0.36931193  0.08996402  0.37317760     0.35900
N381        N  0.32120413  0.20615472  0.47370003    -0.38900
N382        N  0.37427064  0.06776252  0.35668591    -0.38900
N383        N  0.30417246  0.19003780  0.34777318    -0.38300
N384        N  0.42750677  0.11719504  0.46884798    -0.38300
O385        O  0.42062099  0.70512558  0.66597669    -0.81400
C386        C  0.39172760  0.67916325  0.49308818     0.97900
O387        O  0.37845069  0.66148699  0.52851548    -0.70600
O388        O  0.37263060  0.64403045  0.61332368    -0.74200
Al389      Al  0.37993017  0.68725551  0.57922819     1.49000
C390        C  0.39416868  0.63229977  0.62563247     0.93200
O391        O  0.49340078  0.70601040  0.58416959    -0.80400
O392        O  0.49784873  0.78242283  0.56862592    -0.73900
Al393      Al  0.45461955  0.70587064  0.62184199     1.90100
O394        O  0.47975117  0.71994531  0.52074539    -0.73000
O395        O  0.43082877  0.77404993  0.54313464    -0.72900
O396        O  0.41794071  0.71367381  0.49203636    -0.78500
O397        O  0.37399459  0.72426508  0.54677675    -0.76700
O398        O  0.42998403  0.71280193  0.57888295    -1.12900
O399        O  0.37779020  0.71121174  0.62927649    -0.72000
C400        C  0.39320460  0.71110203  0.66453849     0.98700
C401        C  0.49790020  0.70894357  0.54313749     0.95100
Al402      Al  0.45459735  0.74494696  0.53504880     1.55600
O403        O  0.42889920  0.65227643  0.61873532    -0.76700
C404        C  0.39568518  0.75911861  0.53851264     0.99200
C405        C  0.50481190  0.78395559  0.60882237     0.94100
O406        O  0.48326632  0.75716122  0.63349264    -0.82000
O407        O  0.28934224  0.70781439  0.82479581    -0.81400
C408        C  0.29187237  0.67622046  0.99548062     0.97900
O409        O  0.28914654  0.66141326  0.95921205    -0.70600
O410        O  0.27744563  0.64832835  0.87550896    -0.74200
Al411      Al  0.31435715  0.68991151  0.90952639     1.49000
C412        C  0.24320669  0.63597453  0.86681080     0.93200
O413        O  0.22072532  0.71200105  0.91079086    -0.80400
O414        O  0.29266277  0.78356293  0.92422558    -0.73900
Al415      Al  0.25757544  0.70948821  0.87105587     1.90100
O416        O  0.24757400  0.71946660  0.97360836    -0.73000
O417        O  0.35183892  0.77430974  0.94851175    -0.72900
O418        O  0.30230693  0.71110005  0.99782179    -0.78500
O419        O  0.35794329  0.72466076  0.94345530    -0.76700
O420        O  0.29003482  0.71509917  0.91228183    -1.12900
O421        O  0.34050499  0.71683075  0.85913980    -0.72000
C422        C  0.32327335  0.71472584  0.82440061     0.98700
C423        C  0.22050303  0.71611202  0.95165726     0.95100
Al424      Al  0.29820573  0.74489388  0.95692648     1.55600
O425        O  0.22852790  0.65544638  0.87600533    -0.76700
C426        C  0.37107548  0.75856621  0.95483578     0.99200
C427        C  0.28608931  0.78634358  0.88442068     0.94100
O428        O  0.28150123  0.76124389  0.85852102    -0.82000
O429        O  0.20819130  0.93977957  0.83592300    -0.81400
C430        C  0.21487051  0.89890203  0.66271561     0.97900
O431        O  0.19425661  0.87837454  0.69344042    -0.70600
O432        O  0.22963955  0.87835693  0.76376047    -0.74200
Al433      Al  0.18840935  0.88562099  0.75245823     1.49000
C434        C  0.25152852  0.89139826  0.79567057     0.93200
O435        O  0.29077965  0.98440919  0.75590111    -0.80400
O436        O  0.19636673  0.98802502  0.73957289    -0.73900
Al437      Al  0.24745513  0.96063465  0.79355231     1.90100
O438        O  0.26392636  0.00060023  0.70501897    -0.73000
O439        O  0.16124715  0.92458246  0.68778371    -0.72900
O440        O  0.22942791  0.93467161  0.66435309    -0.78500
O441        O  0.14280198  0.88523215  0.74224329    -0.76700
O442        O  0.21637061  0.93536891  0.74993606    -1.12900
O443        O  0.17662553  0.88214108  0.81141663    -0.72000
C444        C  0.18342664  0.90524579  0.84099644     0.98700
C445        C  0.29310370  0.00365158  0.72230030     0.95100
Al446      Al  0.21301614  0.96028699  0.70350337     1.55600
O447        O  0.26055535  0.92345197  0.80990270    -0.76700
C448        C  0.13579826  0.89482351  0.70610607     0.99200
C449        C  0.21391707  0.00663513  0.77304094     0.94100
O450        O  0.23987028  0.00266696  0.78944088    -0.82000
O451        O  0.08300566  0.79674276  0.17380617    -0.81400
C452        C  0.10981528  0.82566627  0.00059298     0.97900
O453        O  0.12223029  0.84205599  0.03630197    -0.70600
O454        O  0.13002387  0.85822500  0.11976424    -0.74200
Al455      Al  0.12366591  0.81673865  0.08666404     1.49000
C456        C  0.10849957  0.87007701  0.12964331     0.93200
O457        O  0.01053555  0.79551216  0.09127928    -0.80400
O458        O  0.01408738  0.71444415  0.08379691    -0.73900
Al459      Al  0.04860613  0.79596089  0.12888471     1.90100
O460        O  0.01696487  0.77201140  0.03099260    -0.73000
O461        O  0.08178982  0.73154384  0.04978804    -0.72900
O462        O  0.08409160  0.79066999  0.99982431    -0.78500
O463        O  0.13421059  0.78491336  0.05314244    -0.76700
O464        O  0.07379170  0.78872866  0.08695455    -1.12900
O465        O  0.12712306  0.79248418  0.13774833    -0.72000
C466        C  0.11129525  0.79190578  0.17306429     0.98700
C467        C  0.00144387  0.78634793  0.05218813     0.95100
Al468      Al  0.05090160  0.75498891  0.04493188     1.55600
O469        O  0.07388864  0.84967665  0.12340949    -0.76700
C470        C  0.11702567  0.75047126  0.04394538     0.99200
C471        C  0.00465779  0.71471610  0.12295541     0.94100
O472        O  0.01875463  0.74538283  0.14225946    -0.82000
O473        O  0.21769697  0.79977037  0.33548772    -0.81400
C474        C  0.21495877  0.81673699  0.51051280     0.97900
O475        O  0.21265836  0.83268250  0.47601579    -0.70600
O476        O  0.22408673  0.85445091  0.39358102    -0.74200
Al477      Al  0.18988763  0.80917742  0.42354558     1.49000
C478        C  0.25861886  0.87069712  0.38546278     0.93200
O479        O  0.29010983  0.80070019  0.41753662    -0.80400
O480        O  0.20707187  0.71441130  0.42259017    -0.73900
Al481      Al  0.25121026  0.79907905  0.38046885     1.90100
O482        O  0.25908446  0.76998087  0.47553087    -0.73000
O483        O  0.15417991  0.72322139  0.45972700    -0.72900
O484        O  0.20906377  0.78297383  0.50991733    -0.78500
O485        O  0.14700157  0.77182008  0.45396101    -0.76700
O486        O  0.21650910  0.78591185  0.42232234    -1.12900
O487        O  0.16568292  0.78715243  0.37056012    -0.72000
C488        C  0.18332961  0.79144298  0.33545459     0.98700
C489        C  0.28977692  0.78869304  0.45567042     0.95100
Al490      Al  0.20816187  0.75077963  0.46313422     1.55600
O491        O  0.27532402  0.85241447  0.38909394    -0.76700
C492        C  0.13374210  0.73752192  0.46317778     0.99200
C493        C  0.21819714  0.71725389  0.38364352     0.94100
O494        O  0.23436290  0.74901089  0.36459708    -0.82000
O495        O  0.29530324  0.57747231  0.16312659    -0.81400
C496        C  0.31964815  0.61184918  0.33294683     0.97900
O497        O  0.33585969  0.62683747  0.29735223    -0.70600
O498        O  0.35315247  0.62964797  0.21436099    -0.74200
Al499      Al  0.30997916  0.62232879  0.24568623     1.49000
C500        C  0.36743771  0.60934204  0.20879173     0.93200
O501        O  0.29611703  0.51062755  0.25328397    -0.80400
O502        O  0.21301997  0.51150793  0.25692139    -0.73900
Al503      Al  0.29470118  0.54592198  0.21135286     1.90100
O504        O  0.26977262  0.51876932  0.30938179    -0.73000
O505        O  0.22564948  0.57674371  0.28440559    -0.72900
O506        O  0.28565291  0.58457757  0.33503391    -0.78500
O507        O  0.27529038  0.63210317  0.27619768    -0.76700
O508        O  0.28518640  0.57211848  0.25001991    -1.12900
O509        O  0.28510477  0.61936482  0.19413502    -0.72000
C510        C  0.28791648  0.60408509  0.16028839     0.98700
C511        C  0.28655978  0.50391837  0.29281690     0.95100
Al512      Al  0.25149509  0.54961809  0.29258009     1.55600
O513        O  0.34829539  0.57443668  0.21690258    -0.76700
C514        C  0.24158600  0.61187922  0.28815305     0.99200
C515        C  0.21311387  0.50053219  0.21896000     0.94100
O516        O  0.24350188  0.51314754  0.19830706    -0.82000
C517        C  0.22310797  0.62982317  0.31140245    -0.05000
C518        C  0.21619095  0.65600920  0.28966278    -0.02100
C519        C  0.21242302  0.68322468  0.31311569     0.02900
C520        C  0.21431312  0.68379147  0.35931689    -0.05000
C521        C  0.21640629  0.65411593  0.38104910    -0.02100
C522        C  0.21996616  0.62688934  0.35711289     0.02900
C523        C  0.21137615  0.65376698  0.24304966     0.37500
C524        C  0.21888436  0.65348265  0.42791961     0.37500
C525        C  0.22244739  0.59698426  0.37984119     0.35900
C526        C  0.20833141  0.71153197  0.28885520     0.35900
N527        N  0.22393949  0.57296745  0.39828224    -0.38900
N528        N  0.20585507  0.73429976  0.26885872    -0.38900
N529        N  0.22127451  0.65302944  0.46528675    -0.38300
N530        N  0.20620050  0.65127146  0.20605431    -0.38300
C531        C  0.27773147  0.91047263  0.36852307    -0.05000
C532        C  0.26850604  0.93621007  0.38631264    -0.02100
C533        C  0.27941220  0.97078308  0.36499540     0.02900
C534        C  0.29193097  0.97663496  0.32111617    -0.05000
C535        C  0.30433814  0.95276599  0.30470090    -0.02100
C536        C  0.29869617  0.92064575  0.32930040     0.02900
C537        C  0.24379848  0.92582641  0.42378507     0.37500
C538        C  0.32171822  0.96017482  0.26222181     0.37500
C539        C  0.31059482  0.89587109  0.31167383     0.35900
C540        C  0.27641206  0.49947509  0.38864495     0.35900
N541        N  0.32018581  0.87615758  0.29764835    -0.38900
N542        N  0.27407603  0.52214882  0.40787139    -0.38900
N543        N  0.33563895  0.96597982  0.22831502    -0.38300
N544        N  0.22306790  0.91785830  0.45255944    -0.38300
C545        C  0.12460058  0.90648190  0.15239954    -0.05000
C546        C  0.12388370  0.90634355  0.19821178    -0.02100
C547        C  0.15107084  0.93829706  0.22099948     0.02900
C548        C  0.17775503  0.97113014  0.19787193    -0.05000
C549        C  0.17313861  0.97323968  0.15257337    -0.02100
C550        C  0.14779850  0.94058994  0.12969977     0.02900
C551        C  0.09726822  0.87230393  0.22193653     0.37500
C552        C  0.19325068  0.50927026  0.12975384     0.37500
C553        C  0.14640412  0.94161924  0.08273124     0.35900
C554        C  0.15315619  0.93611528  0.26779240     0.35900
N555        N  0.14520926  0.94230589  0.04526389    -0.37100
N556        N  0.15478455  0.93435017  0.30514566    -0.38900
N557        N  0.20799810  0.53801188  0.11125265    -0.38300
N558        N  0.07600958  0.84537217  0.24121060    -0.38300
C559        C  0.40648659  0.62767555  0.19118790    -0.05000
C560        C  0.41333762  0.62103482  0.14837124    -0.02100
C561        C  0.44699755  0.64751561  0.12633218     0.02900
C562        C  0.47465847  0.68035438  0.14764895    -0.05000
C563        C  0.47001515  0.68273144  0.19326533    -0.02100
C564        C  0.43580436  0.65716382  0.21425700     0.02900
C565        C  0.38515835  0.58758934  0.12648108     0.37500
C566        C  0.49944314  0.71225658  0.21921743     0.37500
C567        C  0.43020131  0.66178277  0.25969849     0.35900
C568        C  0.95198139  0.64151378  0.08138222     0.35900
N569        N  0.42578354  0.66546360  0.29588425    -0.38900
N570        N  0.95587513  0.63656711  0.04546042    -0.38900
N571        N  0.52229294  0.73579038  0.24041941    -0.38300
N572        N  0.36312140  0.56048888  0.10916147    -0.38300
C573        C  0.12931276  0.79042521  0.21429017    -0.05000
C574        C  0.11844864  0.75595252  0.23657136    -0.02100
C575        C  0.13638575  0.75586864  0.27596701     0.02900
C576        C  0.16453927  0.79034884  0.29369110    -0.05000
C577        C  0.17424806  0.82462019  0.27177600    -0.02100
C578        C  0.15862061  0.82446131  0.23112920     0.02900
C579        C  0.08985002  0.72064149  0.21819066     0.37500
C580        C  0.19745533  0.86057898  0.29236317     0.37500
C581        C  0.17441655  0.85948107  0.20591058     0.35900
C582        C  0.12588195  0.72046946  0.29832015     0.35900
N583        N  0.18862141  0.88768114  0.18623894    -0.38900
N584        N  0.11770367  0.69226679  0.31622304    -0.38900
N585        N  0.21417136  0.89011962  0.30760406    -0.38300
N586        N  0.06708301  0.69244622  0.20337932    -0.38300
C587        C  0.12784061  0.84764519  0.95972163    -0.05000
C588        C  0.10818289  0.83799723  0.91989137    -0.02100
C589        C  0.12503630  0.86030059  0.88235824     0.02900
C590        C  0.16316559  0.88973720  0.88267283    -0.05000
C591        C  0.18331430  0.89899206  0.92185703    -0.02100
C592        C  0.16584473  0.87838932  0.96019721     0.02900
C593        C  0.07116172  0.80436217  0.91640373     0.37500
C594        C  0.22287358  0.92828455  0.92244386     0.37500
C595        C  0.18873809  0.88722864  0.99900877     0.35900
C596        C  0.10269949  0.85313476  0.84335062     0.35900
N597        N  0.20732381  0.89441991  0.02963016    -0.38900
N598        N  0.08448344  0.84746705  0.81264573    -0.38900
N599        N  0.25439152  0.95154492  0.92299360    -0.38300
N600        N  0.04175259  0.77746898  0.91320137    -0.38300
C601        C  0.22239123  0.83800875  0.55207233    -0.05000
C602        C  0.20894161  0.81941552  0.59252130    -0.02100
C603        C  0.21000971  0.84007896  0.62924829     0.02900
C604        C  0.22044425  0.87906388  0.62511501    -0.05000
C605        C  0.23544419  0.89762086  0.58477563    -0.02100
C606        C  0.24024070  0.87793432  0.55068908     0.02900
C607        C  0.19491455  0.77920805  0.59735998     0.37500
C608        C  0.24432991  0.93621253  0.57672869     0.37500
C609        C  0.26776885  0.89906951  0.51704858     0.35900
C610        C  0.20042363  0.82038877  0.67104485     0.35900
N611        N  0.29105875  0.91578214  0.49137047    -0.38900
N612        N  0.19282115  0.80426435  0.70404186    -0.38900
N613        N  0.25118436  0.96691128  0.56989338    -0.38300
N614        N  0.18436643  0.74734776  0.60236389    -0.38300
C615        C  0.28499257  0.65353170  0.03599872    -0.05000
C616        C  0.27640157  0.66562589  0.07442878    -0.02100
C617        C  0.28036954  0.65174866  0.11463252     0.02900
C618        C  0.28472197  0.61947366  0.11709749    -0.05000
C619        C  0.28756475  0.60354795  0.07776625    -0.02100
C620        C  0.28983830  0.62173795  0.03773167     0.02900
C621        C  0.26279351  0.69208384  0.07322832     0.37500
C622        C  0.28812091  0.56845698  0.07747076     0.37500
C623        C  0.29807105  0.60781911  0.99880258     0.35900
C624        C  0.28338891  0.67375607  0.15238555     0.35900
N625        N  0.30468151  0.59662290  0.96792991    -0.38900
N626        N  0.28698069  0.69228674  0.18189688    -0.38900
N627        N  0.28766150  0.54005023  0.07645134    -0.38300
N628        N  0.25166398  0.71288872  0.07309263    -0.38300
C629        C  0.19161996  0.72175686  0.97550459    -0.05000
C630        C  0.20438268  0.74902462  0.00889941    -0.02100
C631        C  0.17884711  0.75307141  0.03512769     0.02900
C632        C  0.14013959  0.73501411  0.02461515    -0.05000
C633        C  0.12691390  0.70801328  0.99098677    -0.02100
C634        C  0.15233679  0.70054767  0.96765500     0.02900
C635        C  0.24423113  0.77578580  0.01505490     0.37500
C636        C  0.08744456  0.68853736  0.97953559     0.37500
C637        C  0.13800919  0.67081528  0.93605011     0.35900
C638        C  0.19309580  0.77648690  0.07334788     0.35900
N639        N  0.12658936  0.64684383  0.91102265    -0.38900
N640        N  0.20458759  0.79513573  0.10368729    -0.38900
N641        N  0.05588934  0.67298409  0.97036113    -0.38300
N642        N  0.27561884  0.79794696  0.02074652    -0.38300
C643        C  0.40659156  0.77691520  0.98094843    -0.05000
C644        C  0.44220346  0.79266460  0.96097842    -0.02100
C645        C  0.47442869  0.80171168  0.98625887     0.02900
C646        C  0.47072652  0.79013280  0.03034898    -0.05000
C647        C  0.43588802  0.77802259  0.05113286    -0.02100
C648        C  0.40460168  0.77343945  0.02680012     0.02900
C649        C  0.44567606  0.79947015  0.91455150     0.37500
C650        C  0.43158275  0.76884670  0.09712399     0.37500
C651        C  0.37071775  0.76577670  0.04935242     0.35900
C652        C  0.01159942  0.82674956  0.96860225     0.35900
N653        N  0.34458797  0.76106215  0.06845986    -0.38900
N654        N  0.04114501  0.84870372  0.95542165    -0.38900
N655        N  0.42806501  0.76146614  0.13382297    -0.38300
N656        N  0.44840156  0.80475009  0.87742855    -0.38300
C657        C  0.22209094  0.59984154  0.84260763    -0.05000
C658        C  0.22016782  0.60045534  0.79668467    -0.02100
C659        C  0.21371332  0.56844515  0.77266848     0.02900
C660        C  0.20637352  0.53478610  0.79444000    -0.05000
C661        C  0.20108883  0.53249817  0.84007159    -0.02100
C662        C  0.21071751  0.56519023  0.86409026     0.02900
C663        C  0.22822308  0.63501603  0.77397856     0.37500
C664        C  0.18473084  0.99645500  0.86286953     0.37500
C665        C  0.21028099  0.56355178  0.91112457     0.35900
C666        C  0.21767902  0.57118992  0.72593229     0.35900
N667        N  0.21005395  0.56234374  0.94862895    -0.38900
N668        N  0.22089071  0.57334415  0.68859377    -0.38900
N669        N  0.17023527  0.96840119  0.88274849    -0.38300
N670        N  0.23448464  0.66241541  0.75547253    -0.38300
C671        C  0.27778446  0.81555453  0.86733498    -0.05000
C672        C  0.24116942  0.80332006  0.85127993    -0.02100
C673        C  0.23294110  0.82873902  0.83002795     0.02900
C674        C  0.26173085  0.86624418  0.82044934    -0.05000
C675        C  0.29810677  0.87921915  0.83785673    -0.02100
C676        C  0.30592737  0.85398729  0.86177143     0.02900
C677        C  0.21088389  0.76419073  0.85517276     0.37500
C678        C  0.32758308  0.91816926  0.83053832     0.37500
C679        C  0.34305824  0.86712298  0.87944354     0.35900
C680        C  0.19371819  0.81598989  0.82068763     0.35900
N681        N  0.37261196  0.87748876  0.89387311    -0.38900
N682        N  0.16198985  0.80433902  0.81485624    -0.38900
N683        N  0.35108593  0.94932444  0.82469430    -0.38300
N684        N  0.18489192  0.73388207  0.85576674    -0.38300
C685        C  0.37855301  0.59706804  0.65265337    -0.05000
C686        C  0.36009510  0.56123111  0.63346254    -0.02100
C687        C  0.33724328  0.52862346  0.65922259     0.02900
C688        C  0.32975840  0.53215702  0.70286520    -0.05000
C689        C  0.35202635  0.56698640  0.72324920    -0.02100
C690        C  0.37762416  0.59916248  0.69844538     0.02900
C691        C  0.36399085  0.55807026  0.58735477     0.37500
C692        C  0.34688155  0.57009025  0.76911815     0.37500
C693        C  0.40140272  0.63450093  0.72019165     0.35900
C694        C  0.32312597  0.99124092  0.64210600     0.35900
N695        N  0.42025626  0.66201736  0.73889944    -0.38900
N696        N  0.31345729  0.96133025  0.62942724    -0.38900
N697        N  0.34268502  0.57227522  0.80576874    -0.38300
N698        N  0.36714307  0.55561707  0.55050875    -0.38300
C699        C  0.10071534  0.86763336  0.68187075    -0.05000
C700        C  0.08750614  0.82827564  0.68524431    -0.02100
C701        C  0.05952487  0.80265413  0.65732543     0.02900
C702        C  0.04022152  0.81435000  0.62895236    -0.05000
C703        C  0.05262017  0.85331108  0.62533081    -0.02100
C704        C  0.08343926  0.87999282  0.65078713     0.02900
C705        C  0.10241767  0.81270566  0.71682782     0.37500
C706        C  0.03338870  0.86576961  0.59602216     0.37500
C707        C  0.09651327  0.91996906  0.64578743     0.35900
C708        C  0.05160631  0.76383566  0.65740875     0.35900
N709        N  0.10702605  0.95192138  0.64168549    -0.38900
N710        N  0.04643870  0.73337344  0.65864977    -0.38900
N711        N  0.51803805  0.87556667  0.57237327    -0.38300
N712        N  0.11265198  0.79834596  0.74149844    -0.38300
C713        C  0.37571478  0.71347884  0.70491498    -0.05000
C714        C  0.38786042  0.74833941  0.72521678    -0.02100
C715        C  0.36985795  0.74935462  0.76372113     0.02900
C716        C  0.34146666  0.71523111  0.78306269    -0.05000
C717        C  0.33204827  0.68049542  0.76421359    -0.02100
C718        C  0.34598291  0.67995317  0.72320700     0.02900
C719        C  0.41820583  0.78288833  0.70599493     0.37500
C720        C  0.31316631  0.64543396  0.78914462     0.37500
C721        C  0.32837851  0.64487289  0.69949051     0.35900
C722        C  0.38147147  0.78505218  0.78434513     0.35900
N723        N  0.31299162  0.61679845  0.68082581    -0.38900
N724        N  0.39081104  0.81350584  0.80101372    -0.38900
N725        N  0.30030908  0.61711683  0.80846729    -0.38300
N726        N  0.44247412  0.81030662  0.69037726    -0.38300
C727        C  0.09390289  0.71567837  0.47852005    -0.05000
C728        C  0.06637347  0.71821048  0.45416971    -0.02100
C729        C  0.03255199  0.71095371  0.47387734     0.02900
C730        C  0.02673335  0.70316940  0.51947115    -0.05000
C731        C  0.05111287  0.69345675  0.54133417    -0.02100
C732        C  0.08449048  0.69944333  0.52063523     0.02900
C733        C  0.07335424  0.72925466  0.40862291     0.37500
C734        C  0.54161341  0.67627918  0.58433332     0.37500
C735        C  0.10902012  0.68885297  0.54242985     0.35900
C736        C  0.00446519  0.71218503  0.44638059     0.35900
N737        N  0.12798293  0.67927786  0.55931608    -0.38900
N738        N  0.98234717  0.71328201  0.42412289    -0.38900
N739        N  0.53388543  0.66179565  0.61827645    -0.38300
N740        N  0.07862242  0.73798471  0.37232279    -0.38300
C741        C  0.37858056  0.78069275  0.52029345    -0.05000
C742        C  0.38258748  0.79054391  0.47568155    -0.02100
C743        C  0.35557047  0.79680742  0.45439849     0.02900
C744        C  0.32478994  0.79402446  0.47799188    -0.05000
C745        C  0.32520697  0.79077941  0.52399338    -0.02100
C746        C  0.35115628  0.78295855  0.54468805     0.02900
C747        C  0.41209444  0.79016100  0.45076735     0.37500
C748        C  0.29860858  0.79477863  0.55056623     0.37500
C749        C  0.34845848  0.77518857  0.59105760     0.35900
C750        C  0.35828350  0.80334540  0.40790255     0.35900
N751        N  0.34626625  0.76881872  0.62796435    -0.38900
N752        N  0.36060755  0.80864532  0.37077908    -0.38900
N753        N  0.27774435  0.79803239  0.57235008    -0.38300
N754        N  0.43558785  0.78978083  0.43086442    -0.38300
C755        C  0.37347561  0.66086223  0.45242150    -0.05000
C756        C  0.38093653  0.63459083  0.43268244    -0.02100
C757        C  0.36297635  0.61783503  0.39338861     0.02900
C758        C  0.33950544  0.62915755  0.37308134    -0.05000
C759        C  0.33434493  0.65725424  0.39147494    -0.02100
C760        C  0.34867447  0.67064053  0.43261743     0.02900
C761        C  0.40673289  0.62479081  0.45283470     0.37500
C762        C  0.31667225  0.67457055  0.36706952     0.37500
C763        C  0.33471525  0.69142146  0.45577632     0.35900
C764        C  0.36926895  0.58989625  0.37319183     0.35900
N765        N  0.32126075  0.70616739  0.47366046    -0.38900
N766        N  0.37418506  0.56765638  0.35672695    -0.38900
N767        N  0.30424804  0.69007542  0.34772252    -0.38300
N768        N  0.42745163  0.61709545  0.46886827    -0.38300
O769        O  0.92067587  0.20512259  0.66597152    -0.81400
C770        C  0.89165107  0.17915080  0.49311521     0.97900
O771        O  0.87839508  0.16147363  0.52854672    -0.70600
O772        O  0.87263482  0.14402251  0.61335051    -0.74200
Al773      Al  0.87990921  0.18724215  0.57926926     1.49000
C774        C  0.89417871  0.13228783  0.62561746     0.93200
O775        O  0.99337469  0.20598750  0.58405123    -0.80400
O776        O  0.99779762  0.28242427  0.56856501    -0.73900
Al777      Al  0.95463620  0.20585630  0.62178704     1.90100
O778        O  0.97968988  0.21995664  0.52066878    -0.73000
O779        O  0.93076030  0.27403241  0.54316428    -0.72900
O780        O  0.91785527  0.21366330  0.49204903    -0.78500
O781        O  0.87393653  0.22423939  0.54684323    -0.76700
O782        O  0.92996365  0.21279342  0.57887241    -1.12900
O783        O  0.87781266  0.21120182  0.62932922    -0.72000
C784        C  0.89325576  0.21109623  0.66457017     0.98700
C785        C  0.99785474  0.20894835  0.54301744     0.95100
Al786      Al  0.95453459  0.24494209  0.53502743     1.55600
O787        O  0.92890315  0.15226038  0.61868123    -0.76700
C788        C  0.89561404  0.25909231  0.53856683     0.99200
C789        C  0.00481020  0.28395224  0.60874582     0.94100
O790        O  0.98331517  0.25714473  0.63343272    -0.82000
O791        O  0.78939478  0.20785699  0.82478458    -0.81400
C792        C  0.79192876  0.17632511  0.99549753     0.97900
O793        O  0.78918839  0.16150539  0.95923456    -0.70600
O794        O  0.77749408  0.14839094  0.87554284    -0.74200
Al795      Al  0.81439822  0.18998760  0.90954317     1.49000
C796        C  0.74325662  0.13603090  0.86683200     0.93200
O797        O  0.72076103  0.21207358  0.91073225    -0.80400
O798        O  0.79267695  0.28362846  0.92417150    -0.73900
Al799      Al  0.75762224  0.20954830  0.87102396     1.90100
O800        O  0.74758832  0.21953404  0.97356288    -0.73000
O801        O  0.85185903  0.27439596  0.94850336    -0.72900
O802        O  0.80233375  0.21119822  0.99782439    -0.78500
O803        O  0.85797428  0.22475112  0.94346148    -0.76700
O804        O  0.79007094  0.21517022  0.91226894    -1.12900
O805        O  0.84055162  0.21689111  0.85915446    -0.72000
C806        C  0.82332628  0.21477060  0.82440651     0.98700
C807        C  0.72052326  0.21617890  0.95159825     0.95100
Al808      Al  0.79822491  0.24497296  0.95690162     1.55600
O809        O  0.72857353  0.15550656  0.87599141    -0.76700
C810        C  0.87109909  0.25865655  0.95483349     0.99200
C811        C  0.78612358  0.28640359  0.88435744     0.94100
O812        O  0.78155750  0.26130329  0.85847052    -0.82000
O813        O  0.70815714  0.43980815  0.83586676    -0.81400
C814        C  0.71483986  0.39891241  0.66266176     0.97900
O815        O  0.69423247  0.37839172  0.69339347    -0.70600
O816        O  0.72963371  0.37839530  0.76370636    -0.74200
Al817      Al  0.68839439  0.38564559  0.75240984     1.49000
C818        C  0.75151831  0.39143824  0.79562046     0.93200
O819        O  0.79075355  0.48444189  0.75584989    -0.80400
O820        O  0.69633894  0.48804297  0.73949125    -0.73900
Al821      Al  0.74742641  0.46066506  0.79349674     1.90100
O822        O  0.76390133  0.50061605  0.70494820    -0.73000
O823        O  0.66122047  0.42458918  0.68772742    -0.72900
O824        O  0.72940268  0.43468241  0.66429415    -0.78500
O825        O  0.64278455  0.38525200  0.74220060    -0.76700
O826        O  0.71634805  0.43539292  0.74987904    -1.12900
O827        O  0.67661585  0.38216556  0.81137035    -0.72000
C828        C  0.68340344  0.40527059  0.84094553     0.98700
C829        C  0.79307874  0.50367654  0.72224115     0.95100
Al830      Al  0.71299066  0.46030126  0.70343710     1.55600
O831        O  0.76053311  0.42348777  0.80985703    -0.76700
C832        C  0.63577534  0.39483344  0.70606022     0.99200
C833        C  0.71388457  0.50665676  0.77295806     0.94100
O834        O  0.73983503  0.50269131  0.78937065    -0.82000
O835        O  0.58299894  0.29673213  0.17375703    -0.81400
C836        C  0.60979442  0.32567471  0.00054498     0.97900
O837        O  0.62221798  0.34205937  0.03625547    -0.70600
O838        O  0.63002414  0.35822223  0.11972654    -0.74200
Al839      Al  0.62365384  0.31673489  0.08661166     1.49000
C840        C  0.60850466  0.37007696  0.12961935     0.93200
O841        O  0.51053657  0.29553617  0.09124862    -0.80400
O842        O  0.51407474  0.21444195  0.08376028    -0.73900
Al843      Al  0.54860226  0.29596822  0.12884427     1.90100
O844        O  0.51693694  0.27201206  0.03096520    -0.73000
O845        O  0.58176504  0.23154532  0.04971729    -0.72900
O846        O  0.58406293  0.29068025  0.99977535    -0.78500
O847        O  0.63419145  0.28491059  0.05307805    -0.76700
O848        O  0.57377889  0.28873124  0.08690726    -1.12900
O849        O  0.62710877  0.29246949  0.13768757    -0.72000
C850        C  0.61128363  0.29188763  0.17300694     0.98700
C851        C  0.50143096  0.28636265  0.05216294     0.95100
Al852      Al  0.55087896  0.25499204  0.04488552     1.55600
O853        O  0.57389409  0.34968397  0.12338050    -0.76700
C854        C  0.61700005  0.25047005  0.04387341     0.99200
C855        C  0.50465193  0.21472210  0.12292023     0.94100
O856        O  0.51874364  0.24539412  0.14221042    -0.82000
O857        O  0.71768568  0.29976893  0.33545061    -0.81400
C858        C  0.71489246  0.31672471  0.51046010     0.97900
O859        O  0.71259659  0.33267009  0.47596045    -0.70600
O860        O  0.72404308  0.35443779  0.39352823    -0.74200
Al861      Al  0.68984111  0.30916556  0.42348652     1.49000
C862        C  0.75858050  0.37069310  0.38544213     0.93200
O863        O  0.79007093  0.30069946  0.41754927    -0.80400
O864        O  0.70700472  0.21439478  0.42254664    -0.73900
Al865      Al  0.75118458  0.29907768  0.38045297     1.90100
O866        O  0.75901096  0.26994584  0.47551010    -0.73000
O867        O  0.65411874  0.22321226  0.45966596    -0.72900
O868        O  0.70899735  0.28296077  0.50986966    -0.78500
O869        O  0.64694903  0.27181427  0.45389190    -0.76700
O870        O  0.71646418  0.28590177  0.42228374    -1.12900
O871        O  0.66565481  0.28713775  0.37049610    -0.72000
C872        C  0.68331536  0.29143341  0.33540005     0.98700
C873        C  0.78971559  0.28867155  0.45567833     0.95100
Al874      Al  0.70809713  0.25076210  0.46309195     1.55600
O875        O  0.77528938  0.35241440  0.38908622    -0.76700
C876        C  0.63368422  0.23751600  0.46310856     0.99200
C877        C  0.71815098  0.21724401  0.38360870     0.94100
O878        O  0.73434624  0.24900873  0.36457795    -0.82000
O879        O  0.79536162  0.07753857  0.16314606    -0.81400
C880        C  0.81958127  0.11185476  0.33298358     0.97900
O881        O  0.83581414  0.12685002  0.29740267    -0.70600
O882        O  0.85316857  0.12968973  0.21443764    -0.74200
Al883      Al  0.80996875  0.12235655  0.24572049     1.49000
C884        C  0.86745865  0.10938521  0.20888520     0.93200
O885        O  0.79611358  0.01065519  0.25330367    -0.80400
O886        O  0.71302308  0.01151476  0.25688085    -0.73900
Al887      Al  0.79472526  0.04596604  0.21137445     1.90100
O888        O  0.76975314  0.01878676  0.30939447    -0.73000
O889        O  0.72560910  0.07673893  0.28436328    -0.72900
O890        O  0.78558578  0.08458255  0.33504736    -0.78500
O891        O  0.77524691  0.13210856  0.27619991    -0.76700
O892        O  0.78517991  0.07214475  0.25003355    -1.12900
O893        O  0.78513304  0.11941206  0.19414786    -0.72000
C894        C  0.78798080  0.10415609  0.16030148     0.98700
C895        C  0.78654584  0.00393903  0.29283337     0.95100
Al896      Al  0.75146574  0.04962572  0.29256825     1.55600
O897        O  0.84831158  0.07447871  0.21698265    -0.76700
C898        C  0.74153387  0.11187315  0.28812363     0.99200
C899        C  0.71313951  0.00055511  0.21891660     0.94100
O900        O  0.74353850  0.01319263  0.19828088    -0.82000
C901        C  0.72303121  0.12980137  0.31135783    -0.05000
C902        C  0.71613726  0.15600309  0.28961808    -0.02100
C903        C  0.71238596  0.18322858  0.31307145     0.02900
C904        C  0.71425032  0.18377732  0.35927405    -0.05000
C905        C  0.71628820  0.15406899  0.38100320    -0.02100
C906        C  0.71984958  0.12684347  0.35706490     0.02900
C907        C  0.71131179  0.15375557  0.24300703     0.37500
C908        C  0.71870211  0.15339476  0.42787791     0.37500
C909        C  0.72229454  0.09691605  0.37978900     0.35900
C910        C  0.70833194  0.21155947  0.28881199     0.35900
N911        N  0.72375901  0.07288168  0.39822491    -0.38900
N912        N  0.70588444  0.23434543  0.26881780    -0.38900
N913        N  0.72103700  0.15290687  0.46524963    -0.38300
N914        N  0.70612070  0.15125233  0.20601457    -0.38300
C915        C  0.77769433  0.41047607  0.36852664    -0.05000
C916        C  0.76843506  0.43619254  0.38630629    -0.02100
C917        C  0.77933545  0.47076745  0.36499731     0.02900
C918        C  0.79188672  0.47664023  0.32112967    -0.05000
C919        C  0.80432870  0.45279471  0.30472948    -0.02100
C920        C  0.79869090  0.42067489  0.32932656     0.02900
C921        C  0.74370293  0.42578559  0.42375937     0.37500
C922        C  0.82174009  0.46022637  0.26226672     0.37500
C923        C  0.81062725  0.39592502  0.31171643     0.35900
C924        C  0.77644485  0.99952319  0.38866580     0.35900
N925        N  0.82024844  0.37623106  0.29770489    -0.38900
N926        N  0.77414248  0.02221582  0.40789358    -0.38900
N927        N  0.83568473  0.46604953  0.22837231    -0.38300
N928        N  0.72295515  0.41779936  0.45251922    -0.38300
C929        C  0.62460662  0.40647466  0.15239428    -0.05000
C930        C  0.62388880  0.40632466  0.19820798    -0.02100
C931        C  0.65105440  0.43828588  0.22100342     0.02900
C932        C  0.67771713  0.47113417  0.19788364    -0.05000
C933        C  0.67309123  0.47325128  0.15258958    -0.02100
C934        C  0.64778014  0.44059591  0.12970462     0.02900
C935        C  0.59729320  0.37227185  0.22192661     0.37500
C936        C  0.69341573  0.00923749  0.12962952     0.37500
C937        C  0.64639113  0.44163568  0.08273658     0.35900
C938        C  0.65313454  0.43610599  0.26779698     0.35900
N939        N  0.64520187  0.44232912  0.04526912    -0.37100
N940        N  0.65475722  0.43434501  0.30515129    -0.38900
N941        N  0.70824686  0.03795412  0.11108000    -0.38300
N942        N  0.57605111  0.34533084  0.24119908    -0.38300
C943        C  0.90651292  0.12771612  0.19129892    -0.05000
C944        C  0.91338471  0.12100616  0.14852192    -0.02100
C945        C  0.94702646  0.14748425  0.12645050     0.02900
C946        C  0.97466414  0.18036888  0.14771528    -0.05000
C947        C  0.97002454  0.18279750  0.19332192    -0.02100
C948        C  0.93581544  0.15725296  0.21432963     0.02900
C949        C  0.88525595  0.08747696  0.12671620     0.37500
C950        C  0.99945960  0.21234365  0.21924668     0.37500
C951        C  0.93020429  0.16193678  0.25974793     0.35900
C952        C  0.45200665  0.14146713  0.08141543     0.35900
N953        N  0.92578171  0.16567089  0.29591537    -0.38900
N954        N  0.45589927  0.13649549  0.04550241    -0.38900
N955        N  0.02231785  0.23589080  0.24042780    -0.38300
N956        N  0.86326410  0.06030263  0.10947775    -0.38300
C957        C  0.62930576  0.29040523  0.21422784    -0.05000
C958        C  0.61843376  0.25593482  0.23651943    -0.02100
C959        C  0.63637137  0.25585427  0.27591611     0.02900
C960        C  0.66453553  0.29033504  0.29362779    -0.05000
C961        C  0.67425638  0.32460346  0.27169875    -0.02100
C962        C  0.65862453  0.32444060  0.23105432     0.02900
C963        C  0.58982638  0.22062252  0.21815014     0.37500
C964        C  0.69748010  0.36056638  0.29226972     0.37500
C965        C  0.67442139  0.35945754  0.20582965     0.35900
C966        C  0.62585809  0.22045846  0.29828378     0.35900
N967        N  0.68862621  0.38765689  0.18615659    -0.38900
N968        N  0.61767365  0.19225958  0.31619976    -0.38900
N969        N  0.71421036  0.39011300  0.30749312    -0.38300
N970        N  0.56705285  0.19242490  0.20334970    -0.38300
C971        C  0.62781775  0.34765810  0.95967203    -0.05000
C972        C  0.60816515  0.33800046  0.91983796    -0.02100
C973        C  0.62501628  0.36030406  0.88230341     0.02900
C974        C  0.66313909  0.38975742  0.88262138    -0.05000
C975        C  0.68328237  0.39902393  0.92180935    -0.02100
C976        C  0.66581637  0.37841520  0.96014875     0.02900
C977        C  0.57115200  0.30435461  0.91634718     0.37500
C978        C  0.72283520  0.42833367  0.92240027     0.37500
C979        C  0.68871111  0.38726178  0.99895982     0.35900
C980        C  0.60268303  0.35311815  0.84328938     0.35900
N981        N  0.70729823  0.39445761  0.02958050    -0.38900
N982        N  0.58446824  0.34743180  0.81257997    -0.38900
N983        N  0.75434825  0.45160742  0.92295302    -0.38300
N984        N  0.54174935  0.27745315  0.91314251    -0.38300
C985        C  0.72232224  0.33799850  0.55201660    -0.05000
C986        C  0.70885650  0.31940563  0.59246254    -0.02100
C987        C  0.70994181  0.34007484  0.62919090     0.02900
C988        C  0.72039726  0.37906556  0.62505923    -0.05000
C989        C  0.73539608  0.39761824  0.58471783    -0.02100
C990        C  0.74018441  0.37792555  0.55063233     0.02900
C991        C  0.69478197  0.27918853  0.59729435     0.37500
C992        C  0.74428391  0.43621010  0.57666588     0.37500
C993        C  0.76771099  0.39905558  0.51698837     0.35900
C994        C  0.70034858  0.32038288  0.67098643     0.35900
N995        N  0.79099909  0.41576571  0.49130760    -0.38900
N996        N  0.69274045  0.30425750  0.70398290    -0.38900
N997        N  0.75113820  0.46690823  0.56982587    -0.38300
N998        N  0.68419097  0.24731863  0.60229220    -0.38300
C999        C  0.78510263  0.15365581  0.03601994    -0.05000
C1000       C  0.77646567  0.16570936  0.07444931    -0.02100
C1001       C  0.78041953  0.15181813  0.11465240     0.02900
C1002       C  0.78483019  0.11957689  0.11710961    -0.05000
C1003       C  0.78777538  0.10372058  0.07777433    -0.02100
C1004       C  0.79004199  0.12192011  0.03774939     0.02900
C1005       C  0.76282226  0.19213851  0.07324655     0.37500
C1006       C  0.78845374  0.06869463  0.07746089     0.37500
C1007       C  0.79837088  0.10807581  0.99882440     0.35900
C1008       C  0.78336363  0.17378092  0.15241927     0.35900
N1009       N  0.80505770  0.09693980  0.96795491    -0.38900
N1010       N  0.78689878  0.19227956  0.18194282    -0.38900
N1011       N  0.78809074  0.04033732  0.07641634    -0.38300
N1012       N  0.75166328  0.21291911  0.07310448    -0.38300
C1013       C  0.69162262  0.22180407  0.97543430    -0.05000
C1014       C  0.70435768  0.24902458  0.00887987    -0.02100
C1015       C  0.67880001  0.25302902  0.03511408     0.02900
C1016       C  0.64010880  0.23501034  0.02454257    -0.05000
C1017       C  0.62691019  0.20806984  0.99085128    -0.02100
C1018       C  0.65234746  0.20062213  0.96752356     0.02900
C1019       C  0.74419882  0.27579341  0.01507202     0.37500
C1020       C  0.58745731  0.18864359  0.97933002     0.37500
C1021       C  0.63804319  0.17094247  0.93585387     0.35900
C1022       C  0.69300546  0.27636050  0.07340189     0.35900
N1023       N  0.62664193  0.14701320  0.91077353    -0.38900
N1024       N  0.70445986  0.29493732  0.10379995    -0.38900
N1025       N  0.55591565  0.17313091  0.97009795    -0.38300
N1026       N  0.77558069  0.29796178  0.02078534    -0.38300
C1027       C  0.90661623  0.27700952  0.98093760    -0.05000
C1028       C  0.94221656  0.29268801  0.96095896    -0.02100
C1029       C  0.97443495  0.30171112  0.98623697     0.02900
C1030       C  0.97072962  0.29017174  0.03034182    -0.05000
C1031       C  0.93590533  0.27812540  0.05112938    -0.02100
C1032       C  0.90463031  0.27356717  0.02679166     0.02900
C1033       C  0.94568126  0.29942958  0.91452079     0.37500
C1034       C  0.93159850  0.26897840  0.09712731     0.37500
C1035       C  0.87075229  0.26593540  0.04933592     0.35900
C1036       C  0.51158272  0.32675272  0.96857369     0.35900
N1037       N  0.84462214  0.26123738  0.06842952    -0.38900
N1038       N  0.54112905  0.34868787  0.95537805    -0.38900
N1039       N  0.92807933  0.26161940  0.13383155    -0.38300
N1040       N  0.94839821  0.30465416  0.87738893    -0.38300
C1041       C  0.72214935  0.09988216  0.84265661    -0.05000
C1042       C  0.72019607  0.10046975  0.79673539    -0.02100
C1043       C  0.71374826  0.06845432  0.77273376     0.02900
C1044       C  0.70645188  0.03481458  0.79451965    -0.05000
C1045       C  0.70121359  0.03255216  0.84015938    -0.02100
C1046       C  0.71083243  0.06525124  0.86415889     0.02900
C1047       C  0.72822464  0.13501558  0.77401353     0.37500
C1048       C  0.68460649  0.49643785  0.86274104     0.37500
C1049       C  0.71045200  0.06364423  0.91119456     0.35900
C1050       C  0.71768245  0.07117890  0.72599419     0.35900
N1051       N  0.71027293  0.06246223  0.94869915    -0.38900
N1052       N  0.72087088  0.07331785  0.68865317    -0.38900
N1053       N  0.67007224  0.46836758  0.88258804    -0.38300
N1054       N  0.73446759  0.16240515  0.75549838    -0.38300
C1055       C  0.77780949  0.31560241  0.86724710    -0.05000
C1056       C  0.74120236  0.30335084  0.85115263    -0.02100
C1057       C  0.73295732  0.32877100  0.82993567     0.02900
C1058       C  0.76173232  0.36628991  0.82039299    -0.05000
C1059       C  0.79810359  0.37927744  0.83782165    -0.02100
C1060       C  0.80593365  0.35404781  0.86172743     0.02900
C1061       C  0.71094487  0.26420281  0.85496228     0.37500
C1062       C  0.82756424  0.41823996  0.83053992     0.37500
C1063       C  0.84305736  0.36719966  0.87943022     0.35900
C1064       C  0.69373024  0.31601065  0.82060818     0.35900
N1065       N  0.87260610  0.37757947  0.89388246    -0.38900
N1066       N  0.66199932  0.30435405  0.81479023    -0.38900
N1067       N  0.85105382  0.44940515  0.82472497    -0.38300
N1068       N  0.68498195  0.23387581  0.85548812    -0.38300
C1069       C  0.87857978  0.09705729  0.65263719    -0.05000
C1070       C  0.86010655  0.06121954  0.63344861    -0.02100
C1071       C  0.83726083  0.02861487  0.65921585     0.02900
C1072       C  0.82979368  0.03215402  0.70286379    -0.05000
C1073       C  0.85207334  0.06698435  0.72324132    -0.02100
C1074       C  0.87767033  0.09915472  0.69842998     0.02900
C1075       C  0.86397687  0.05805549  0.58733575     0.37500
C1076       C  0.84693490  0.07009849  0.76910960     0.37500
C1077       C  0.90146699  0.13449193  0.72016981     0.35900
C1078       C  0.82309933  0.49127857  0.64203753     0.35900
N1079       N  0.92033616  0.16200713  0.73887251    -0.38900
N1080       N  0.81342353  0.46137026  0.62934583    -0.38900
N1081       N  0.84274084  0.07229293  0.80575862    -0.38300
N1082       N  0.86710821  0.05560013  0.55048553    -0.38300
C1083       C  0.60069104  0.36763410  0.68183472    -0.05000
C1084       C  0.58748425  0.32827715  0.68522608    -0.02100
C1085       C  0.55950272  0.30264616  0.65731547     0.02900
C1086       C  0.54018706  0.31433036  0.62894779    -0.05000
C1087       C  0.55258463  0.35328973  0.62530443    -0.02100
C1088       C  0.58341185  0.37998211  0.65074142     0.02900
C1089       C  0.60239768  0.31271700  0.71681895     0.37500
C1090       C  0.53334651  0.36573579  0.59598935     0.37500
C1091       C  0.59649429  0.41995766  0.64570593     0.35900
C1092       C  0.55160226  0.26383316  0.65739246     0.35900
N1093       N  0.60701442  0.45190917  0.64157131    -0.38900
N1094       N  0.54644897  0.23337587  0.65861972    -0.38900
N1095       N  0.01781714  0.37554335  0.57258803    -0.38300
N1096       N  0.61263217  0.29836418  0.74149880    -0.38300
C1097       C  0.87579221  0.21347891  0.70496348    -0.05000
C1098       C  0.88793929  0.24834625  0.72524856    -0.02100
C1099       C  0.86992815  0.24937619  0.76373748     0.02900
C1100       C  0.84152858  0.21526003  0.78308352    -0.05000
C1101       C  0.83211083  0.18051697  0.76425555    -0.02100
C1102       C  0.84605290  0.17996019  0.72325950     0.02900
C1103       C  0.91829101  0.28288747  0.70602052     0.37500
C1104       C  0.81321533  0.14546164  0.78919671     0.37500
C1105       C  0.82843728  0.14487507  0.69955182     0.35900
C1106       C  0.88153331  0.28508256  0.78433482     0.35900
N1107       N  0.81303747  0.11679653  0.68089607    -0.38900
N1108       N  0.89086490  0.31354404  0.80097999    -0.38900
N1109       N  0.80034947  0.11714771  0.80852701    -0.38300
N1110       N  0.94256560  0.31029845  0.69039797    -0.38300
C1111       C  0.59384497  0.21567782  0.47844672    -0.05000
C1112       C  0.56632858  0.21824866  0.45411582    -0.02100
C1113       C  0.53251840  0.21100870  0.47383729     0.02900
C1114       C  0.52669067  0.20318070  0.51942492    -0.05000
C1115       C  0.55105600  0.19343365  0.54126075    -0.02100
C1116       C  0.58442627  0.19941553  0.52054869     0.02900
C1117       C  0.57331434  0.22931882  0.40857526     0.37500
C1118       C  0.04144052  0.17608460  0.58405264     0.37500
C1119       C  0.60894630  0.18879967  0.54231966     0.35900
C1120       C  0.50446023  0.21231604  0.44636127     0.35900
N1121       N  0.62790414  0.17920843  0.55918599    -0.38900
N1122       N  0.48236665  0.21347731  0.42412121    -0.38900
N1123       N  0.03365775  0.16151516  0.61794881    -0.38300
N1124       N  0.57858818  0.23806929  0.37228076    -0.38300
C1125       C  0.87849242  0.28065229  0.52035196    -0.05000
C1126       C  0.88253107  0.29054475  0.47575055    -0.02100
C1127       C  0.85552233  0.29681460  0.45445695     0.02900
C1128       C  0.82471461  0.29399263  0.47802805    -0.05000
C1129       C  0.82509254  0.29069935  0.52402799    -0.02100
C1130       C  0.85103423  0.28287214  0.54473125     0.02900
C1131       C  0.91206881  0.29020579  0.45085285     0.37500
C1132       C  0.79846338  0.29465718  0.55059108     0.37500
C1133       C  0.84829408  0.27504767  0.59109104     0.35900
C1134       C  0.85827816  0.30340855  0.40797010     0.35900
N1135       N  0.84606815  0.26863207  0.62798890    -0.38900
N1136       N  0.86063732  0.30875455  0.37085425    -0.38900
N1137       N  0.77757433  0.29787685  0.57236833    -0.38300
N1138       N  0.93558752  0.28986196  0.43096294    -0.38300
C1139       C  0.87339037  0.16084684  0.45246014    -0.05000
C1140       C  0.88090912  0.13463330  0.43267738    -0.02100
C1141       C  0.86295106  0.11788103  0.39338404     0.02900
C1142       C  0.83942039  0.12915031  0.37312610    -0.05000
C1143       C  0.83421616  0.15720763  0.39155183    -0.02100
C1144       C  0.84855192  0.17059172  0.43269152     0.02900
C1145       C  0.90677384  0.12490049  0.45277693     0.37500
C1146       C  0.81652608  0.17451494  0.36716443     0.37500
C1147       C  0.83459644  0.19136975  0.45586538     0.35900
C1148       C  0.86931602  0.09001187  0.37312892     0.35900
N1149       N  0.82115362  0.20612257  0.47375919    -0.38900
N1150       N  0.87429140  0.06783045  0.35661372    -0.38900
N1151       N  0.80409641  0.19002050  0.34782961    -0.38300
N1152       N  0.92754730  0.11726053  0.46877000    -0.38300
O1153       O  0.92065912  0.70514877  0.66596011    -0.81400
C1154       C  0.89171222  0.67917205  0.49308509     0.97900
O1155       O  0.87844109  0.66150132  0.52851635    -0.70600
O1156       O  0.87264473  0.64405407  0.61332267    -0.74200
Al1157     Al  0.87994112  0.68727738  0.57922880     1.49000
C1158       C  0.89418091  0.63231672  0.62561514     0.93200
O1159       O  0.99340311  0.70600842  0.58411620    -0.80400
O1160       O  0.99785236  0.78243836  0.56858371    -0.73900
Al1161     Al  0.95464156  0.70588222  0.62180816     1.90100
O1162       O  0.97974864  0.71995780  0.52070397    -0.73000
O1163       O  0.93083128  0.77406419  0.54311434    -0.72900
O1164       O  0.91792942  0.71368037  0.49202300    -0.78500
O1165       O  0.87399763  0.72428335  0.54678102    -0.76700
O1166       O  0.92999562  0.71281834  0.57886272    -1.12900
O1167       O  0.87782318  0.71124210  0.62927916    -0.72000
C1168       C  0.89324434  0.71112893  0.66453468     0.98700
C1169       C  0.99789789  0.70894914  0.54308418     0.95100
Al1170     Al  0.95459653  0.74495900  0.53502079     1.55600
O1171       O  0.92890952  0.65228745  0.61870443    -0.76700
C1172       C  0.89568715  0.75913396  0.53850278     0.99200
C1173       C  0.00483377  0.78397104  0.60877484     0.94100
O1174       O  0.98330806  0.75717253  0.63345314    -0.82000
O1175       O  0.78937699  0.70784011  0.82478333    -0.81400
C1176       C  0.79189709  0.67625037  0.99547343     0.97900
O1177       O  0.78916862  0.66144072  0.95920585    -0.70600
O1178       O  0.77747251  0.64835371  0.87550228    -0.74200
Al1179     Al  0.81438243  0.68993706  0.90952025     1.49000
C1180       C  0.74323473  0.63600190  0.86679950     0.93200
O1181       O  0.72075364  0.71203177  0.91076606    -0.80400
O1182       O  0.79268498  0.78358859  0.92420704    -0.73900
Al1183     Al  0.75760712  0.70951660  0.87103779     1.90100
O1184       O  0.74759417  0.71949189  0.97358826    -0.73000
O1185       O  0.85186076  0.77433634  0.94850287    -0.72900
O1186       O  0.80232872  0.71112938  0.99781195    -0.78500
O1187       O  0.85796546  0.72468679  0.94344949    -0.76700
O1188       O  0.79006118  0.71512588  0.91226924    -1.12900
O1189       O  0.84053520  0.71685476  0.85913578    -0.72000
C1190       C  0.82330788  0.71475095  0.82439382     0.98700
C1191       C  0.72052588  0.71613906  0.95163264     0.95100
Al1192     Al  0.79822760  0.74492077  0.95691246     1.55600
O1193       O  0.72855690  0.65547567  0.87598848    -0.76700
C1194       C  0.87109668  0.75859221  0.95482876     0.99200
C1195       C  0.78611754  0.78636979  0.88440007     0.94100
O1196       O  0.78153798  0.76127246  0.85850171    -0.82000
O1197       O  0.70821788  0.93980580  0.83592318    -0.81400
C1198       C  0.71486436  0.89891374  0.66271574     0.97900
O1199       O  0.69424693  0.87838712  0.69343963    -0.70600
O1200       O  0.72963763  0.87836812  0.76375724    -0.74200
Al1201     Al  0.68841091  0.88564016  0.75246049     1.49000
C1202       C  0.75153645  0.89141467  0.79565929     0.93200
O1203       O  0.79078879  0.98442357  0.75587787    -0.80400
O1204       O  0.69637535  0.98804310  0.73957059    -0.73900
Al1205     Al  0.74747175  0.96065530  0.79354016     1.90100
O1206       O  0.76392995  0.00061611  0.70500494    -0.73000
O1207       O  0.66124677  0.92459548  0.68778414    -0.72900
O1208       O  0.72942624  0.93468370  0.66435181    -0.78500
O1209       O  0.64281011  0.88526622  0.74225967    -0.76700
O1210       O  0.71637857  0.93538711  0.74993191    -1.12900
O1211       O  0.67663662  0.88216665  0.81141912    -0.72000
C1212       C  0.68344832  0.90527392  0.84099848     0.98700
C1213       C  0.79310909  0.00366458  0.72227754     0.95100
Al1214     Al  0.71301913  0.96030220  0.70349892     1.55600
O1215       O  0.76057158  0.92347250  0.80988477    -0.76700
C1216       C  0.63579839  0.89484366  0.70611918     0.99200
C1217       C  0.71393144  0.00665551  0.77303520     0.94100
O1218       O  0.73988705  0.00268814  0.78943001    -0.82000
O1219       O  0.58301036  0.79674635  0.17378895    -0.81400
C1220       C  0.60983150  0.82567772  0.00057651     0.97900
O1221       O  0.62224657  0.84206445  0.03628704    -0.70600
O1222       O  0.63002690  0.85822689  0.11974824    -0.74200
Al1223     Al  0.62367370  0.81674232  0.08664953     1.49000
C1224       C  0.60850106  0.87007839  0.12962260     0.93200
O1225       O  0.51053564  0.79550462  0.09126340    -0.80400
O1226       O  0.51409152  0.71445153  0.08376216    -0.73900
Al1227     Al  0.54861065  0.79595973  0.12886524     1.90100
O1228       O  0.51697566  0.77202546  0.03096533    -0.73000
O1229       O  0.58179704  0.73155112  0.04975562    -0.72900
O1230       O  0.58410451  0.79068327  0.99980182    -0.78500
O1231       O  0.63421904  0.78491782  0.05312965    -0.76700
O1232       O  0.57379909  0.78873317  0.08693315    -1.12900
O1233       O  0.62712682  0.79248474  0.13773537    -0.72000
C1234       C  0.61129891  0.79190814  0.17305047     0.98700
C1235       C  0.50144611  0.78634813  0.05217024     0.95100
Al1236     Al  0.55091070  0.75499933  0.04490363     1.55600
O1237       O  0.57388973  0.84967587  0.12339006    -0.76700
C1238       C  0.61703422  0.75047817  0.04392191     0.99200
C1239       C  0.50466325  0.71471686  0.12292317     0.94100
O1240       O  0.51876468  0.74537967  0.14223668    -0.82000
O1241       O  0.71768223  0.79978175  0.33549847    -0.81400
C1242       C  0.71494776  0.81674107  0.51052389     0.97900
O1243       O  0.71262727  0.83267678  0.47602892    -0.70600
O1244       O  0.72405580  0.85445185  0.39359584    -0.74200
Al1245     Al  0.68986219  0.80917175  0.42355675     1.49000
C1246       C  0.75858861  0.87070542  0.38547760     0.93200
O1247       O  0.79010416  0.80072380  0.41753959    -0.80400
O1248       O  0.70706619  0.71442171  0.42259373    -0.73900
Al1249     Al  0.75119787  0.79909500  0.38047872     1.90100
O1250       O  0.75908650  0.76999348  0.47553198    -0.73000
O1251       O  0.65417946  0.72322174  0.45976039    -0.72900
O1252       O  0.70906821  0.78298366  0.50993007    -0.78500
O1253       O  0.64697994  0.77180592  0.45397011    -0.76700
O1254       O  0.71649562  0.78591815  0.42233364    -1.12900
O1255       O  0.66566141  0.78714661  0.37056642    -0.72000
C1256       C  0.68331279  0.79144661  0.33546157     0.98700
C1257       C  0.78977643  0.78871172  0.45566888     0.95100
Al1258     Al  0.70816110  0.75078864  0.46314586     1.55600
O1259       O  0.77530069  0.85242927  0.38910856    -0.76700
C1260       C  0.63373403  0.73751350  0.46320746     0.99200
C1261       C  0.71819028  0.71726871  0.38364534     0.94100
O1262       O  0.73435814  0.74902881  0.36460523    -0.82000
O1263       O  0.79531770  0.57749718  0.16313134    -0.81400
C1264       C  0.81961466  0.61186400  0.33295466     0.97900
O1265       O  0.83583448  0.62685175  0.29736408    -0.70600
O1266       O  0.85314884  0.62966431  0.21438271    -0.74200
Al1267     Al  0.80996699  0.62234555  0.24569065     1.49000
C1268       C  0.86743463  0.60935691  0.20882681     0.93200
O1269       O  0.79609713  0.51064046  0.25329872    -0.80400
O1270       O  0.71300748  0.51152119  0.25690558    -0.73900
Al1271     Al  0.79469739  0.54594064  0.21136347     1.90100
O1272       O  0.76974972  0.51878666  0.30939070    -0.73000
O1273       O  0.72562694  0.57675829  0.28438188    -0.72900
O1274       O  0.78561815  0.58459435  0.33503454    -0.78500
O1275       O  0.77526996  0.63211851  0.27618738    -0.76700
O1276       O  0.78517314  0.57213534  0.25002266    -1.12900
O1277       O  0.78510531  0.61938365  0.19413041    -0.72000
C1278       C  0.78793291  0.60411122  0.16028636     0.98700
C1279       C  0.78653547  0.50393207  0.29283044     0.95100
Al1280     Al  0.75147248  0.54963363  0.29257339     1.55600
O1281       O  0.84828899  0.57445185  0.21693767    -0.76700
C1282       C  0.74156261  0.61189375  0.28813293     0.99200
C1283       C  0.71310987  0.50054894  0.21894422     0.94100
O1284       O  0.74350220  0.51316991  0.19829874    -0.82000
C1285       C  0.72308060  0.62983665  0.31137775    -0.05000
C1286       C  0.71619276  0.65604494  0.28964352    -0.02100
C1287       C  0.71242930  0.68325983  0.31310368     0.02900
C1288       C  0.71429936  0.68380763  0.35930675    -0.05000
C1289       C  0.71636116  0.65411065  0.38103009    -0.02100
C1290       C  0.71991239  0.62688214  0.35708596     0.02900
C1291       C  0.71140379  0.65382732  0.24302653     0.37500
C1292       C  0.71881769  0.65345581  0.42790168     0.37500
C1293       C  0.72236129  0.59695496  0.37980531     0.35900
C1294       C  0.70836244  0.71158499  0.28884878     0.35900
N1295       N  0.72382755  0.57292027  0.39823801    -0.38900
N1296       N  0.70590532  0.73436654  0.26885739    -0.38900
N1297       N  0.72119148  0.65298538  0.46526983    -0.38300
N1298       N  0.70624860  0.65135258  0.20602713    -0.38300
C1299       C  0.77769460  0.91048095  0.36853608    -0.05000
C1300       C  0.76846074  0.93621443  0.38631988    -0.02100
C1301       C  0.77936961  0.97078900  0.36500409     0.02900
C1302       C  0.79189788  0.97664533  0.32112871    -0.05000
C1303       C  0.80431102  0.95277955  0.30471880    -0.02100
C1304       C  0.79866685  0.92065853  0.32931848     0.02900
C1305       C  0.74374497  0.92582638  0.42378510     0.37500
C1306       C  0.82170237  0.96019408  0.26224578     0.37500
C1307       C  0.81057250  0.89588799  0.31169630     0.35900
C1308       C  0.77637300  0.49948110  0.38865673     0.35900
N1309       N  0.82016883  0.87617765  0.29767415    -0.38900
N1310       N  0.77403907  0.52215664  0.40788190    -0.38900
N1311       N  0.83563250  0.96600385  0.22834408    -0.38300
N1312       N  0.72300915  0.91785446  0.45255474    -0.38300
C1313       C  0.62460208  0.90648679  0.15237112    -0.05000
C1314       C  0.62387727  0.90635433  0.19818264    -0.02100
C1315       C  0.65106364  0.93830863  0.22097005     0.02900
C1316       C  0.67775419  0.97113881  0.19784241    -0.05000
C1317       C  0.67315023  0.97324155  0.15253964    -0.02100
C1318       C  0.64781106  0.94058998  0.12966811     0.02900
C1319       C  0.59725481  0.87231828  0.22190793     0.37500
C1320       C  0.69328566  0.50927011  0.12971429     0.37500
C1321       C  0.64643034  0.94161144  0.08269815     0.35900
C1322       C  0.65314365  0.93612835  0.26776378     0.35900
N1323       N  0.64524674  0.94229127  0.04522979    -0.37100
N1324       N  0.65476871  0.93436375  0.30511746    -0.38900
N1325       N  0.70805083  0.53800616  0.11120214    -0.38300
N1326       N  0.57599020  0.84538876  0.24118095    -0.38300
C1327       C  0.90648611  0.62768640  0.19123208    -0.05000
C1328       C  0.91334369  0.62103046  0.14842508    -0.02100
C1329       C  0.94700203  0.64750904  0.12638210     0.02900
C1330       C  0.97465736  0.68035703  0.14768919    -0.05000
C1331       C  0.97001259  0.68274502  0.19330279    -0.02100
C1332       C  0.93580046  0.65718304  0.21429549     0.02900
C1333       C  0.88517493  0.58756854  0.12655084     0.37500
C1334       C  0.99944174  0.71227376  0.21925019     0.37500
C1335       C  0.93019390  0.66181414  0.25973190     0.35900
C1336       C  0.45197202  0.64153352  0.08132585     0.35900
N1337       N  0.92577399  0.66550478  0.29591389    -0.38900
N1338       N  0.45586184  0.63659743  0.04539889    -0.38900
N1339       N  0.02229334  0.73580972  0.24044842    -0.38300
N1340       N  0.86314717  0.56045352  0.10924685    -0.38300
C1341       C  0.62931374  0.79042772  0.21427967    -0.05000
C1342       C  0.61845272  0.75595467  0.23655863    -0.02100
C1343       C  0.63638481  0.75587126  0.27595898     0.02900
C1344       C  0.66452599  0.79035249  0.29369400    -0.05000
C1345       C  0.67423278  0.82462385  0.27177935    -0.02100
C1346       C  0.65861350  0.82446477  0.23112646     0.02900
C1347       C  0.58986160  0.72064308  0.21817175     0.37500
C1348       C  0.69743125  0.86058232  0.29237038     0.37500
C1349       C  0.67441058  0.85948525  0.20590899     0.35900
C1350       C  0.62589195  0.72047099  0.29830269     0.35900
N1351       N  0.68861616  0.88768537  0.18623744    -0.38900
N1352       N  0.61772360  0.69226730  0.31619691    -0.38900
N1353       N  0.71414047  0.89012292  0.30761261    -0.38300
N1354       N  0.56709984  0.69244751  0.20335586    -0.38300
C1355       C  0.62786215  0.84765855  0.95971037    -0.05000
C1356       C  0.60819114  0.83805000  0.91988969    -0.02100
C1357       C  0.62505070  0.86036396  0.88236514     0.02900
C1358       C  0.66319318  0.88976837  0.88267646    -0.05000
C1359       C  0.68335572  0.89897930  0.92184946    -0.02100
C1360       C  0.66588327  0.87836638  0.96018308     0.02900
C1361       C  0.57115186  0.80444069  0.91640150     0.37500
C1362       C  0.72293006  0.92823040  0.92242581     0.37500
C1363       C  0.68878650  0.88714880  0.99898001     0.35900
C1364       C  0.60270884  0.85324265  0.84336973     0.35900
N1365       N  0.70738003  0.89429327  0.02958944    -0.38900
N1366       N  0.58448861  0.84761188  0.81267549    -0.38900
N1367       N  0.75446041  0.95145667  0.92296575    -0.38300
N1368       N  0.54172889  0.77756641  0.91319747    -0.38300
C1369       C  0.72238767  0.83801879  0.55207979    -0.05000
C1370       C  0.70896201  0.81943260  0.59253687    -0.02100
C1371       C  0.71002500  0.84009776  0.62925993     0.02900
C1372       C  0.72043869  0.87907582  0.62511721    -0.05000
C1373       C  0.73542021  0.89762774  0.58477110    -0.02100
C1374       C  0.74021870  0.87794256  0.55068539     0.02900
C1375       C  0.69497237  0.77923366  0.59738935     0.37500
C1376       C  0.74428297  0.93621137  0.57671677     0.37500
C1377       C  0.76773534  0.89908017  0.51703538     0.35900
C1378       C  0.70045213  0.82041675  0.67106216     0.35900
N1379       N  0.79101802  0.91579557  0.49135060    -0.38900
N1380       N  0.69285783  0.80430024  0.70406406    -0.38900
N1381       N  0.75111898  0.96690351  0.56987640    -0.38300
N1382       N  0.68445840  0.74738198  0.60240690    -0.38300
C1383       C  0.78502529  0.65356574  0.03599320    -0.05000
C1384       C  0.77643535  0.66566042  0.07442345    -0.02100
C1385       C  0.78040560  0.65178486  0.11462704     0.02900
C1386       C  0.78475672  0.61950901  0.11709309    -0.05000
C1387       C  0.78761231  0.60359048  0.07776246    -0.02100
C1388       C  0.78988123  0.62177827  0.03772735     0.02900
C1389       C  0.76282404  0.69211575  0.07322314     0.37500
C1390       C  0.78819078  0.56851131  0.07746771     0.37500
C1391       C  0.79811846  0.60786311  0.99879817     0.35900
C1392       C  0.78343274  0.67379709  0.15237843     0.35900
N1393       N  0.80473193  0.59666972  0.96792524    -0.38900
N1394       N  0.78703098  0.69233112  0.18188865    -0.38900
N1395       N  0.78774969  0.54011384  0.07644657    -0.38300
N1396       N  0.75169102  0.71291780  0.07308574    -0.38300
C1397       C  0.69163916  0.72178070  0.97547593    -0.05000
C1398       C  0.70439740  0.74904484  0.00887402    -0.02100
C1399       C  0.67885824  0.75308337  0.03510498     0.02900
C1400       C  0.64015108  0.73502487  0.02458949    -0.05000
C1401       C  0.62692995  0.70802927  0.99095550    -0.02100
C1402       C  0.65235671  0.70057002  0.96762206     0.02900
C1403       C  0.74424457  0.77581154  0.01502898     0.37500
C1404       C  0.58746116  0.68855087  0.97950191     0.37500
C1405       C  0.63803415  0.67084336  0.93601025     0.35900
C1406       C  0.69310285  0.77649072  0.07333171     0.35900
N1407       N  0.62661859  0.64687656  0.91097707    -0.38900
N1408       N  0.70459125  0.79513272  0.10367668    -0.38900
N1409       N  0.55590629  0.67299517  0.97032564    -0.38300
N1410       N  0.77563113  0.79797744  0.02071883    -0.38300
C1411       C  0.90661241  0.77694080  0.98094011    -0.05000
C1412       C  0.94222018  0.79265415  0.96096971    -0.02100
C1413       C  0.97444128  0.80169748  0.98625458     0.02900
C1414       C  0.97073584  0.79014485  0.03035449    -0.05000
C1415       C  0.93590353  0.77807036  0.05113592    -0.02100
C1416       C  0.90462277  0.77349162  0.02679382     0.02900
C1417       C  0.94569208  0.79942156  0.91453622     0.37500
C1418       C  0.93159837  0.76892682  0.09713472     0.37500
C1419       C  0.87074088  0.76584883  0.04933611     0.35900
C1420       C  0.51158467  0.82679218  0.96861734     0.35900
N1421       N  0.84461041  0.76114684  0.06843185    -0.38900
N1422       N  0.54112788  0.84876616  0.95544825    -0.38900
N1423       N  0.92808097  0.76157302  0.13384022    -0.38300
N1424       N  0.94841626  0.80466893  0.87740806    -0.38300
C1425       C  0.72211926  0.59986908  0.84259700    -0.05000
C1426       C  0.72019597  0.60048280  0.79667411    -0.02100
C1427       C  0.71373799  0.56847134  0.77265845     0.02900
C1428       C  0.70639509  0.53481149  0.79443049    -0.05000
C1429       C  0.70111303  0.53252488  0.84006246    -0.02100
C1430       C  0.71074519  0.56521799  0.86408046     0.02900
C1431       C  0.72825528  0.63504457  0.77396743     0.37500
C1432       C  0.68476638  0.99648455  0.86287214     0.37500
C1433       C  0.71031281  0.56358099  0.91111488     0.35900
C1434       C  0.71770388  0.57121566  0.72592221     0.35900
N1435       N  0.71008949  0.56237412  0.94861927    -0.38900
N1436       N  0.72091596  0.57336990  0.68858373    -0.38900
N1437       N  0.67028196  0.96843502  0.88275952    -0.38300
N1438       N  0.73452028  0.66244486  0.75546094    -0.38300
C1439       C  0.77780748  0.81557616  0.86731072    -0.05000
C1440       C  0.74119424  0.80333590  0.85124529    -0.02100
C1441       C  0.73295897  0.82875621  0.83001059     0.02900
C1442       C  0.76174405  0.86626397  0.82043709    -0.05000
C1443       C  0.79811869  0.87924409  0.83785201    -0.02100
C1444       C  0.80594270  0.85401382  0.86176509     0.02900
C1445       C  0.71091801  0.76420015  0.85510830     0.37500
C1446       C  0.82758878  0.91819924  0.83054946     0.37500
C1447       C  0.84306901  0.86715700  0.87945525     0.35900
C1448       C  0.69373301  0.81600870  0.82069420     0.35900
N1449       N  0.87261877  0.87752905  0.89390015    -0.38900
N1450       N  0.66200249  0.80436079  0.81488551    -0.38900
N1451       N  0.85108643  0.94935871  0.82471921    -0.38300
N1452       N  0.68493495  0.73388575  0.85567784    -0.38300
C1453       C  0.87856629  0.59708308  0.65263133    -0.05000
C1454       C  0.86010195  0.56124824  0.63343619    -0.02100
C1455       C  0.83724640  0.52863989  0.65919337     0.02900
C1456       C  0.82976705  0.53217180  0.70283896    -0.05000
C1457       C  0.85204193  0.56699846  0.72322599    -0.02100
C1458       C  0.87764180  0.59917438  0.69842372     0.02900
C1459       C  0.86399497  0.55809085  0.58732690     0.37500
C1460       C  0.84690044  0.57010100  0.76909612     0.37500
C1461       C  0.90142633  0.63451051  0.72017156     0.35900
C1462       C  0.82310975  0.99125071  0.64206661     0.35900
N1463       N  0.92028475  0.66202555  0.73887943    -0.38900
N1464       N  0.81343157  0.96134043  0.62937968    -0.38900
N1465       N  0.84270585  0.57228502  0.80574743    -0.38300
N1466       N  0.86714580  0.55564106  0.55047979    -0.38300
C1467       C  0.60070330  0.86764626  0.68190264    -0.05000
C1468       C  0.58744225  0.82828111  0.68536587    -0.02100
C1469       C  0.55945172  0.80263953  0.65746927     0.02900
C1470       C  0.54019260  0.81433299  0.62901934    -0.05000
C1471       C  0.55263881  0.85330104  0.62531419    -0.02100
C1472       C  0.58346343  0.87999448  0.65075512     0.02900
C1473       C  0.60231252  0.81272306  0.71701877     0.37500
C1474       C  0.53344974  0.86575695  0.59593511     0.37500
C1475       C  0.59658278  0.91997453  0.64566742     0.35900
C1476       C  0.55148302  0.76380202  0.65765320     0.35900
N1477       N  0.60713155  0.95192940  0.64149423    -0.38900
N1478       N  0.54627001  0.73332355  0.65897384    -0.38900
N1479       N  0.01794365  0.87558126  0.57251511    -0.38300
N1480       N  0.61251693  0.79837810  0.74174817    -0.38300
C1481       C  0.87576099  0.71350411  0.70491745    -0.05000
C1482       C  0.88790631  0.74836446  0.72521951    -0.02100
C1483       C  0.86990080  0.74937975  0.76372129     0.02900
C1484       C  0.84150609  0.71525645  0.78305979    -0.05000
C1485       C  0.83208798  0.68052092  0.76421121    -0.02100
C1486       C  0.84602558  0.67997887  0.72320662     0.02900
C1487       C  0.91825221  0.78291344  0.70599829     0.37500
C1488       C  0.81319971  0.64545839  0.78913995     0.37500
C1489       C  0.82841525  0.64490042  0.69948671     0.35900
C1490       C  0.88151291  0.78507729  0.78434440     0.35900
N1491       N  0.81302150  0.61682699  0.68082082    -0.38900
N1492       N  0.89085122  0.81353100  0.80101213    -0.38900
N1493       N  0.80033724  0.61714016  0.80846112    -0.38300
N1494       N  0.94252070  0.81033166  0.69038069    -0.38300
C1495       C  0.59390138  0.71566511  0.47857106    -0.05000
C1496       C  0.56635291  0.71815930  0.45421753    -0.02100
C1497       C  0.53253374  0.71090210  0.47393225     0.02900
C1498       C  0.52673832  0.70316082  0.51953534    -0.05000
C1499       C  0.55114211  0.69348882  0.54141262    -0.02100
C1500       C  0.58451347  0.69946786  0.52070484     0.02900
C1501       C  0.57331146  0.72916259  0.40865863     0.37500
C1502       C  0.04154868  0.67619283  0.58422686     0.37500
C1503       C  0.60905867  0.68890201  0.54250638     0.35900
C1504       C  0.50442518  0.71208891  0.44643276     0.35900
N1505       N  0.62803113  0.67934192  0.55939822    -0.38900
N1506       N  0.48229077  0.71315161  0.42417190    -0.38900
N1507       N  0.03379106  0.66166745  0.61814710    -0.38300
N1508       N  0.57856455  0.73785966  0.37234887    -0.38300
C1509       C  0.87858109  0.78070470  0.52027654    -0.05000
C1510       C  0.88257507  0.79053656  0.47565934    -0.02100
C1511       C  0.85555935  0.79680398  0.45437980     0.02900
C1512       C  0.82479272  0.79404336  0.47798083    -0.05000
C1513       C  0.82522300  0.79081564  0.52398260    -0.02100
C1514       C  0.85117015  0.78299031  0.54467548     0.02900
C1515       C  0.91206817  0.79013315  0.45073875     0.37500
C1516       C  0.79864287  0.79484247  0.55055691     0.37500
C1517       C  0.84848451  0.77523780  0.59104829     0.35900
C1518       C  0.85825873  0.80332450  0.40788111     0.35900
N1519       N  0.84630293  0.76888172  0.62795774    -0.38900
N1520       N  0.86057185  0.80861125  0.37075552    -0.38900
N1521       N  0.77779517  0.79812133  0.57234218    -0.38300
N1522       N  0.93555057  0.78973711  0.43083028    -0.38300
C1523       C  0.87344958  0.66086778  0.45242587    -0.05000
C1524       C  0.88092983  0.63461864  0.43266445    -0.02100
C1525       C  0.86296442  0.61786379  0.39337329     0.02900
C1526       C  0.83946803  0.62916604  0.37309178    -0.05000
C1527       C  0.83429077  0.65724515  0.39150487    -0.02100
C1528       C  0.84862729  0.67062914  0.43264545     0.02900
C1529       C  0.90675318  0.62484230  0.45278995     0.37500
C1530       C  0.81660855  0.67455859  0.36711351     0.37500
C1531       C  0.83466673  0.69140177  0.45582035     0.35900
C1532       C  0.86928008  0.58995007  0.37315012     0.35900
N1533       N  0.82121489  0.70614422  0.47371763    -0.38900
N1534       N  0.87421481  0.56773126  0.35666238    -0.38900
N1535       N  0.80418089  0.69006481  0.34777606    -0.38300
N1536       N  0.92749306  0.61716577  0.46880263    -0.38300
loop_ 
_geom_bond_atom_site_label_1 
_geom_bond_atom_site_label_2 
_geom_bond_distance 
_geom_bond_site_symmetry_2 
_ccdc_geom_bond_type 
O1           C16   1.274       .  A
O1           Al9   1.949       .  S
C2           O12   1.271       .  A
C2            O3   1.263       .  A
C2          C371   1.468       .  S
O3           Al5   1.889       .  S
O4            C6   1.261       .  A
O4           Al5   1.932       .  S
Al5          O13   1.921       .  S
Al5          O15   1.873       .  S
Al5          O14   1.778       .  S
C6           O19   1.254       .  A
C6          C301   1.488       .  S
O7           C17   1.275       .  A
O7           Al9   1.981       .  S
O8           C21   1.267       .  A
O8          Al18   1.967       .  S
Al9          O22   1.857       .  S
Al9          O19   1.899       .  S
Al9          O14   1.771       .  S
O10          C17   1.252       .  A
O10         Al18   1.852       .  S
O11          C20   1.263       .  A
O11         Al18   1.912       .  S
O12         Al18   1.940       .  S
O13          C20   1.264       .  A
O14         Al18   1.785       .  S
O15          C16   1.258       .  A
C16         C329   1.473       .  S
C17        C1114   1.519       .  S
C20         C357   1.487       .  S
C21          O22   1.249       .  A
C21        C1086   1.497       .  S
O23          C38   1.279       .  A
O23         Al31   1.969       .  S
C24          O34   1.271       .  A
C24          O25   1.261       .  A
C24         C231   1.484   1_556  S
O25         Al27   1.874       .  S
O26          C28   1.264       .  A
O26         Al27   1.933       .  S
Al27         O35   1.946       .  S
Al27         O37   1.882       .  S
Al27         O36   1.773       .  S
C28          O41   1.261       .  A
C28         C273   1.495       .  S
O29          C39   1.276       .  A
O29         Al31   2.003       .  S
O30          C43   1.272       .  A
O30         Al40   1.974       .  S
Al31         O44   1.864       .  S
Al31         O41   1.914       .  S
Al31         O36   1.773       .  S
O32          C39   1.251       .  A
O32         Al40   1.868       .  S
O33          C42   1.265       .  A
O33         Al40   1.923       .  S
O34         Al40   1.928       .  S
O35          C42   1.266       .  A
O36         Al40   1.774       .  S
O37          C38   1.263       .  A
C38         C332   1.478       .  S
C39         C245   1.521       .  S
C42         C259   1.500       .  S
C43          O44   1.252       .  A
C43         C287   1.492       .  S
O45          C60   1.264       .  A
O45         Al53   1.907       .  S
C46          O56   1.274       .  A
C46          O47   1.258       .  A
C46         C220   1.514       .  S
O47         Al49   1.887       .  S
O48          C50   1.261       .  A
O48         Al49   1.900       .  S
Al49         O57   1.898       .  S
Al49         O59   1.870       .  S
Al49         O58   1.762       .  S
C50          O63   1.258       .  A
C50         C290   1.496       .  S
O51          C61   1.265       .  A
O51         Al53   1.924       .  S
O52          C65   1.278       .  A
O52         Al62   1.964       .  S
Al53         O66   1.905       .  S
Al53         O63   1.919       .  S
Al53         O58   1.792       .  S
O54          C61   1.261       .  A
O54         Al62   1.902       .  S
O55          C64   1.261       .  A
O55         Al62   1.943       .  S
O56         Al62   1.951       .  S
O57          C64   1.256       .  A
O58         Al62   1.790       .  S
O59          C60   1.253       .  A
C60         C206   1.483       .  S
C61         C688   1.483       .  S
C64         C315   1.508       .  S
C65          O66   1.264       .  A
C65         C660   1.505       .  S
O67          C82   1.280       .  A
O67         Al75   1.967       .  S
C68          O78   1.281   1_554  A
C68          O69   1.265       .  A
C68         C203   1.498   1_554  S
O69         Al71   1.871       .  S
O70          C72   1.252       .  A
O70         Al71   1.903       .  S
Al71         O79   1.897       .  S
Al71         O81   1.892       .  S
Al71         O80   1.774       .  S
C72          O85   1.250       .  A
C72         C161   1.480       .  S
O73          C83   1.267       .  A
O73         Al75   1.940       .  S
O74          C87   1.274       .  A
O74         Al84   1.972       .  S
Al75         O88   1.835       .  S
Al75         O85   1.904       .  S
Al75         O80   1.785       .  S
O76          C83   1.260       .  A
O76         Al84   1.900       .  S
O77          C86   1.264       .  A
O77         Al84   1.953       .  S
O78         Al84   1.965   1_556  S
O79          C86   1.255       .  A
O80         Al84   1.793       .  S
O81          C82   1.267       .  A
C82         C189   1.486       .  S
C83        C1030   1.507   1_455  S
C86         C248   1.518       .  S
C87          O88   1.248       .  A
C87         C946   1.516   1_455  S
O89         C104   1.278       .  A
O89         Al97   1.964       .  S
C90         O100   1.280       .  A
C90          O91   1.267       .  A
C90         C217   1.505       .  S
O91         Al93   1.885       .  S
O92          C94   1.252       .  A
O92         Al93   1.892       .  S
Al93        O101   1.888       .  S
Al93        O103   1.899       .  S
Al93        O102   1.786       .  S
C94         O107   1.254       .  A
C94         C147   1.491       .  S
O95         C105   1.265       .  A
O95         Al97   1.940       .  S
O96         C109   1.271       .  A
O96        Al106   1.949       .  S
Al97        O110   1.878       .  S
Al97        O107   1.912       .  S
Al97        O102   1.794       .  S
O98         C105   1.253       .  A
O98        Al106   1.870       .  S
O99         C108   1.255       .  A
O99        Al106   1.921       .  S
O100       Al106   1.963       .  S
O101        C108   1.251       .  A
O102       Al106   1.793       .  S
O103        C104   1.267       .  A
C104        C192   1.490       .  S
C105        C360   1.511       .  S
C108        C343   1.491       .  S
C109        O110   1.257       .  A
C109        C136   1.513       .  S
O111        C126   1.276       .  A
O111       Al119   1.946       .  S
C112        O122   1.275       .  A
C112        O113   1.263       .  A
C112        C374   1.463       .  S
O113       Al115   1.873       .  S
O114        C116   1.256       .  A
O114       Al115   1.914       .  S
Al115       O123   1.926       .  S
Al115       O125   1.860       .  S
Al115       O124   1.777       .  S
C116        O129   1.255       .  A
C116        C175   1.489       .  S
O117        C127   1.266       .  A
O117       Al119   1.947       .  S
O118        C131   1.264       .  A
O118       Al128   1.922       .  S
Al119       O132   1.885       .  S
Al119       O129   1.913       .  S
Al119       O124   1.794       .  S
O120        C127   1.248       .  A
O120       Al128   1.839       .  S
O121        C130   1.251       .  A
O121       Al128   1.906       .  S
O122       Al128   1.937       .  S
O123        C130   1.256       .  A
O124       Al128   1.783       .  S
O125        C126   1.264       .  A
C126        C234   1.498       .  S
C127        C534   1.510   1_545  S
C130        C133   1.495       .  S
C131        O132   1.258       .  A
C131        C548   1.496   1_545  S
C133        C134   1.403       .  A
C133        C138   1.415       .  A
C134        C135   1.416       .  A
C134        C139   1.449       .  S
C135        C136   1.427       .  A
C135        C142   1.451       .  S
C136        C137   1.420       .  A
C137        C138   1.420       .  A
C137        C140   1.450       .  S
C138        C141   1.450       .  S
C139        N146   1.157       .  T
C140        N145   1.157       .  T
C141        N143   1.157       .  T
C142        N144   1.157       .  T
C147        C148   1.413       .  A
C147        C152   1.419       .  A
C148        C149   1.402       .  A
C148        C153   1.453       .  S
C149        C150   1.424       .  A
C149        C540   1.455       .  S
C150        C511   1.510       .  S
C150        C151   1.418       .  A
C151        C152   1.421       .  A
C151        C154   1.449       .  S
C152        C155   1.450       .  S
C153        N160   1.158       .  T
C154        N159   1.157       .  T
C155        N157   1.157       .  T
C156        C533   1.455       .  S
C156        N158   1.158   1_565  T
C161        C162   1.414       .  A
C161        C166   1.405       .  A
C162        C163   1.415       .  A
C162        C167   1.450       .  S
C163        C164   1.414       .  A
C163        C170   1.450       .  S
C164        C515   1.496       .  S
C164        C165   1.417       .  A
C165        C166   1.410       .  A
C165        C552   1.446       .  S
C166        C169   1.451       .  S
C167        N174   1.157       .  T
C168        C549   1.446   1_545  S
C168        N173   1.156       .  T
C169        N171   1.157       .  T
C170        N172   1.157       .  T
C175        C176   1.413       .  A
C175        C180   1.403       .  A
C176        C177   1.421       .  A
C176        C181   1.447       .  S
C177        C178   1.418       .  A
C177        C952   1.449       .  S
C178        C855   1.516       .  S
C178        C179   1.434       .  A
C179        C180   1.411       .  A
C179        C182   1.453       .  S
C180        C183   1.454       .  S
C181        N188   1.156       .  T
C182        N187   1.158       .  T
C183        N185   1.157       .  T
C184        C945   1.449       .  S
C184        N186   1.157       .  T
C189        C190   1.413       .  A
C189        C194   1.409       .  A
C190        C191   1.421       .  A
C190        C195   1.448       .  S
C191        C192   1.414       .  A
C191        C198   1.449       .  S
C192        C193   1.411       .  A
C193        C194   1.406       .  A
C193        C196   1.445       .  S
C194        C197   1.451       .  S
C195        N202   1.157       .  T
C196        N201   1.155       .  T
C197        N199   1.157       .  T
C198        N200   1.157       .  T
C203        C204   1.416       .  A
C203        C208   1.428       .  A
C204        C205   1.409       .  A
C204        C209   1.452       .  S
C205        C206   1.414       .  A
C205        C212   1.453       .  S
C206        C207   1.408       .  A
C207        C208   1.409       .  A
C207        C210   1.454       .  S
C208        C211   1.454       .  S
C209        N216   1.158       .  T
C210        N215   1.157       .  T
C211        N213   1.158   1_556  T
C212        N214   1.157       .  T
C217        C218   1.410       .  A
C217        C222   1.414       .  A
C218        C219   1.415       .  A
C218        C223   1.449       .  S
C219        C220   1.433       .  A
C219        C226   1.454       .  S
C220        C221   1.416       .  A
C221        C222   1.413       .  A
C221        C224   1.449       .  S
C222        C225   1.448       .  S
C223        N230   1.156       .  T
C224        N229   1.158       .  T
C225        N227   1.157       .  T
C226        N228   1.158       .  T
C231        C232   1.409       .  A
C231        C236   1.417       .  A
C232        C233   1.399       .  A
C232        C237   1.454       .  S
C233        C234   1.425       .  A
C233        C240   1.453       .  S
C234        C235   1.423       .  A
C235        C236   1.410       .  A
C235        C238   1.452       .  S
C236        C239   1.454   1_554  S
C237        N244   1.157       .  T
C238        N243   1.157       .  T
C239        N241   1.158       .  T
C240        N242   1.157       .  T
C245        C246   1.425   1_556  A
C245        C250   1.418       .  A
C246        C247   1.409       .  A
C246        C251   1.453       .  S
C247        C248   1.415       .  A
C247        C254   1.456       .  S
C248        C249   1.423   1_554  A
C249        C250   1.434       .  A
C249        C252   1.447       .  S
C250        C253   1.447       .  S
C251        N258   1.158       .  T
C252        N257   1.157       .  T
C253        N255   1.157       .  T
C254        N256   1.158       .  T
C259        C260   1.409       .  A
C259        C264   1.418   1_556  A
C260        C261   1.418       .  A
C260        C265   1.448       .  S
C261        C262   1.416   1_556  A
C261       C1036   1.445       .  S
C262        C851   1.507       .  S
C262        C263   1.413       .  A
C263        C264   1.419       .  A
C263        C266   1.450       .  S
C264        C267   1.447       .  S
C265        N272   1.157       .  T
C266        N271   1.157       .  T
C267        N269   1.157       .  T
C268       C1029   1.445   1_455  S
C268        N270   1.156       .  T
C273        C274   1.419       .  A
C273        C278   1.404       .  A
C274        C275   1.423       .  A
C274        C279   1.449       .  S
C275        C276   1.412       .  A
C275        C282   1.448       .  S
C276        C449   1.505       .  S
C276        C277   1.420       .  A
C277        C278   1.414       .  A
C277        C664   1.445   1_545  S
C278        C281   1.452       .  S
C279        N286   1.157       .  T
C280        C661   1.445       .  S
C280        N285   1.156       .  T
C281        N283   1.157       .  T
C282        N284   1.157       .  T
C287        C288   1.417       .  A
C287        C292   1.412       .  A
C288        C289   1.402       .  A
C288        C293   1.452       .  S
C289        C290   1.412       .  A
C289        C296   1.454       .  S
C290        C291   1.419       .  A
C291        C292   1.425       .  A
C291        C294   1.448       .  S
C292        C295   1.448       .  S
C293        N300   1.157       .  T
C294        N299   1.157       .  T
C295        N297   1.157       .  T
C296        N298   1.157       .  T
C301        C302   1.408       .  A
C301        C306   1.419       .  A
C302        C303   1.413       .  A
C302        C307   1.448       .  S
C303        C304   1.410       .  A
C303        C694   1.445   1_545  S
C304        C445   1.483       .  S
C304        C305   1.405       .  A
C305        C306   1.413       .  A
C305        C308   1.450       .  S
C306        C309   1.448       .  S
C307        N314   1.157       .  T
C308        N313   1.157       .  T
C309        N311   1.157       .  T
C310        C687   1.445       .  S
C310        N312   1.156       .  T
C315        C316   1.420       .  A
C315        C320   1.424       .  A
C316        C317   1.403       .  A
C316        C321   1.451       .  S
C317        C318   1.413       .  A
C317        C324   1.454       .  S
C318        C789   1.497       .  S
C318        C319   1.412       .  A
C319        C320   1.427       .  A
C319        C322   1.448       .  S
C320        C323   1.448       .  S
C321        N328   1.157       .  T
C322       N1095   1.157       .  T
C323        N325   1.157       .  T
C324        N326   1.156       .  T
N327       C1090   1.157       .  T
C329        C330   1.411       .  A
C329        C334   1.406       .  A
C330        C331   1.417       .  A
C330        C335   1.449       .  S
C331        C332   1.413       .  A
C331        C338   1.449       .  S
C332        C333   1.410       .  A
C333        C334   1.398       .  A
C333        C336   1.447       .  S
C334        C337   1.451       .  S
C335        N342   1.157       .  T
C336        N341   1.157       .  T
C337        N339   1.157       .  T
C338        N340   1.157       .  T
C343        C344   1.405       .  A
C343        C348   1.412       .  A
C344        C345   1.409       .  A
C344        C349   1.453       .  S
C345        C346   1.431       .  A
C345        C352   1.453       .  S
C346        C785   1.519   1_455  S
C346        C347   1.420       .  A
C347        C348   1.423       .  A
C347       C1118   1.448       .  S
C348        C351   1.447       .  S
C349        N356   1.157       .  T
C350       C1115   1.448       .  S
C350        N355   1.157       .  T
C351        N353   1.157       .  T
C352        N354   1.158   1_455  T
C357        C358   1.414       .  A
C357        C362   1.405       .  A
C358        C359   1.420       .  A
C358        C363   1.450       .  S
C359        C360   1.420       .  A
C359        C366   1.449       .  S
C360        C361   1.424       .  A
C361        C362   1.411       .  A
C361        C364   1.450       .  S
C362        C365   1.453       .  S
C363        N370   1.157       .  T
C364        N369   1.157       .  T
C365        N367   1.157       .  T
C366        N368   1.157       .  T
C371        C372   1.412       .  A
C371        C376   1.408       .  A
C372        C373   1.412       .  A
C372        C377   1.449       .  S
C373        C374   1.409       .  A
C373        C380   1.450       .  S
C374        C375   1.405       .  A
C375        C376   1.397       .  A
C375        C378   1.451       .  S
C376        C379   1.448       .  S
C377        N384   1.157       .  T
C378        N383   1.157       .  T
C379        N381   1.156       .  T
C380        N382   1.157       .  T
O385        C400   1.274       .  A
O385       Al393   1.949       .  S
C386        O396   1.271       .  A
C386        O387   1.263       .  A
C386        C755   1.468       .  S
O387       Al389   1.889       .  S
O388        C390   1.261       .  A
O388       Al389   1.932       .  S
Al389       O397   1.921       .  S
Al389       O399   1.873       .  S
Al389       O398   1.778       .  S
C390        O403   1.254       .  A
C390        C685   1.488       .  S
O391        C401   1.275       .  A
O391       Al393   1.981       .  S
O392        C405   1.267       .  A
O392       Al402   1.967       .  S
Al393       O406   1.857       .  S
Al393       O403   1.899       .  S
Al393       O398   1.771       .  S
O394        C401   1.252       .  A
O394       Al402   1.852       .  S
O395        C404   1.263       .  A
O395       Al402   1.912       .  S
O396       Al402   1.940       .  S
O397        C404   1.264       .  A
O398       Al402   1.785       .  S
O399        C400   1.258       .  A
C400        C713   1.473       .  S
C401       C1498   1.519       .  S
C404        C741   1.487       .  S
C405        O406   1.249       .  A
C405       C1470   1.497       .  S
O407        C422   1.279       .  A
O407       Al415   1.969       .  S
C408        O418   1.271       .  A
C408        O409   1.261       .  A
C408        C615   1.484   1_556  S
O409       Al411   1.874       .  S
O410        C412   1.264       .  A
O410       Al411   1.934       .  S
Al411       O419   1.947       .  S
Al411       O421   1.882       .  S
Al411       O420   1.773       .  S
C412        O425   1.261       .  A
C412        C657   1.495       .  S
O413        C423   1.276       .  A
O413       Al415   2.003       .  S
O414        C427   1.272       .  A
O414       Al424   1.974       .  S
Al415       O428   1.864       .  S
Al415       O425   1.914       .  S
Al415       O420   1.773       .  S
O416        C423   1.251       .  A
O416       Al424   1.868       .  S
O417        C426   1.265       .  A
O417       Al424   1.923       .  S
O418       Al424   1.928       .  S
O419        C426   1.266       .  A
O420       Al424   1.774       .  S
O421        C422   1.263       .  A
C422        C716   1.478       .  S
C423        C629   1.521       .  S
C426        C643   1.500       .  S
C427        O428   1.252       .  A
C427        C671   1.492       .  S
O429        C444   1.264       .  A
O429       Al437   1.907       .  S
C430        O440   1.274       .  A
C430        O431   1.258       .  A
C430        C604   1.514       .  S
O431       Al433   1.887       .  S
O432        C434   1.261       .  A
O432       Al433   1.900       .  S
Al433       O441   1.898       .  S
Al433       O443   1.870       .  S
Al433       O442   1.762       .  S
C434        O447   1.258       .  A
C434        C674   1.496       .  S
O435        C445   1.265   1_565  A
O435       Al437   1.924       .  S
O436        C449   1.278   1_565  A
O436       Al446   1.964       .  S
Al437       O450   1.905   1_565  S
Al437       O447   1.919       .  S
Al437       O442   1.792       .  S
O438        C445   1.261       .  A
O438       Al446   1.902   1_545  S
O439        C448   1.261       .  A
O439       Al446   1.943       .  S
O440       Al446   1.951       .  S
O441        C448   1.256       .  A
O442       Al446   1.790       .  S
O443        C444   1.253       .  A
C444        C590   1.482       .  S
C448        C699   1.508       .  S
C449        O450   1.264       .  A
O451        C466   1.280       .  A
O451       Al459   1.967       .  S
C452        O462   1.281   1_554  A
C452        O453   1.265       .  A
C452        C587   1.498   1_554  S
O453       Al455   1.871       .  S
O454        C456   1.252       .  A
O454       Al455   1.903       .  S
Al455       O463   1.897       .  S
Al455       O465   1.892       .  S
Al455       O464   1.774       .  S
C456        O469   1.250       .  A
C456        C545   1.480       .  S
O457        C467   1.267       .  A
O457       Al459   1.940       .  S
O458        C471   1.274       .  A
O458       Al468   1.972       .  S
Al459       O472   1.835       .  S
Al459       O469   1.904       .  S
Al459       O464   1.785       .  S
O460        C467   1.260       .  A
O460       Al468   1.900       .  S
O461        C470   1.264       .  A
O461       Al468   1.953       .  S
O462       Al468   1.965   1_556  S
O463        C470   1.255       .  A
O464       Al468   1.793       .  S
O465        C466   1.267       .  A
C466        C573   1.486       .  S
C467       C1414   1.507   1_455  S
C470        C632   1.518       .  S
C471        O472   1.248       .  A
C471       C1330   1.516   1_455  S
O473        C488   1.278       .  A
O473       Al481   1.964       .  S
C474        O484   1.280       .  A
C474        O475   1.267       .  A
C474        C601   1.505       .  S
O475       Al477   1.885       .  S
O476        C478   1.252       .  A
O476       Al477   1.892       .  S
Al477       O485   1.888       .  S
Al477       O487   1.899       .  S
Al477       O486   1.786       .  S
C478        O491   1.254       .  A
C478        C531   1.491       .  S
O479        C489   1.265       .  A
O479       Al481   1.940       .  S
O480        C493   1.271       .  A
O480       Al490   1.949       .  S
Al481       O494   1.878       .  S
Al481       O491   1.912       .  S
Al481       O486   1.794       .  S
O482        C489   1.253       .  A
O482       Al490   1.871       .  S
O483        C492   1.255       .  A
O483       Al490   1.921       .  S
O484       Al490   1.963       .  S
O485        C492   1.251       .  A
O486       Al490   1.793       .  S
O487        C488   1.267       .  A
C488        C576   1.490       .  S
C489        C744   1.511       .  S
C492        C727   1.491       .  S
C493        O494   1.257       .  A
C493        C520   1.513       .  S
O495        C510   1.276       .  A
O495       Al503   1.946       .  S
C496        O506   1.275       .  A
C496        O497   1.263       .  A
C496        C758   1.463       .  S
O497       Al499   1.873       .  S
O498        C500   1.256       .  A
O498       Al499   1.913       .  S
Al499       O507   1.926       .  S
Al499       O509   1.860       .  S
Al499       O508   1.777       .  S
C500        O513   1.255       .  A
C500        C559   1.489       .  S
O501        C511   1.266       .  A
O501       Al503   1.947       .  S
O502        C515   1.264       .  A
O502       Al512   1.922       .  S
Al503       O516   1.885       .  S
Al503       O513   1.913       .  S
Al503       O508   1.794       .  S
O504        C511   1.248       .  A
O504       Al512   1.839       .  S
O505        C514   1.251       .  A
O505       Al512   1.906       .  S
O506       Al512   1.937       .  S
O507        C514   1.256       .  A
O508       Al512   1.783       .  S
O509        C510   1.264       .  A
C510        C618   1.498       .  S
C514        C517   1.495       .  S
C515        O516   1.258       .  A
C517        C518   1.403       .  A
C517        C522   1.415       .  A
C518        C519   1.416       .  A
C518        C523   1.449       .  S
C519        C520   1.427       .  A
C519        C526   1.451       .  S
C520        C521   1.420       .  A
C521        C522   1.420       .  A
C521        C524   1.450       .  S
C522        C525   1.450       .  S
C523        N530   1.157       .  T
C524        N529   1.157       .  T
C525        N527   1.157       .  T
C526        N528   1.157       .  T
C531        C532   1.413       .  A
C531        C536   1.419       .  A
C532        C533   1.403       .  A
C532        C537   1.453       .  S
C533        C534   1.424       .  A
C534        C535   1.418       .  A
C535        C536   1.421       .  A
C535        C538   1.449       .  S
C536        C539   1.450       .  S
C537        N544   1.158       .  T
C538        N543   1.157       .  T
C539        N541   1.157       .  T
C540        N542   1.158       .  T
C545        C546   1.414       .  A
C545        C550   1.405       .  A
C546        C547   1.415       .  A
C546        C551   1.450       .  S
C547        C548   1.414       .  A
C547        C554   1.450       .  S
C548        C549   1.417       .  A
C549        C550   1.410       .  A
C550        C553   1.451       .  S
C551        N558   1.157       .  T
C552        N557   1.156       .  T
C553        N555   1.157       .  T
C554        N556   1.157       .  T
C559        C560   1.413       .  A
C559        C564   1.403       .  A
C560        C561   1.421       .  A
C560        C565   1.447       .  S
C561        C562   1.418       .  A
C561       C1336   1.449       .  S
C562       C1239   1.516       .  S
C562        C563   1.434       .  A
C563        C564   1.411       .  A
C563        C566   1.453       .  S
C564        C567   1.454       .  S
C565        N572   1.156       .  T
C566        N571   1.158       .  T
C567        N569   1.157       .  T
C568       C1329   1.449       .  S
C568        N570   1.157       .  T
C573        C574   1.413       .  A
C573        C578   1.409       .  A
C574        C575   1.421       .  A
C574        C579   1.448       .  S
C575        C576   1.414       .  A
C575        C582   1.449       .  S
C576        C577   1.411       .  A
C577        C578   1.406       .  A
C577        C580   1.445       .  S
C578        C581   1.451       .  S
C579        N586   1.157       .  T
C580        N585   1.155       .  T
C581        N583   1.157       .  T
C582        N584   1.157       .  T
C587        C588   1.416       .  A
C587        C592   1.428       .  A
C588        C589   1.409       .  A
C588        C593   1.452       .  S
C589        C590   1.414       .  A
C589        C596   1.453       .  S
C590        C591   1.408       .  A
C591        C592   1.409       .  A
C591        C594   1.454       .  S
C592        C595   1.454       .  S
C593        N600   1.158       .  T
C594        N599   1.157       .  T
C595        N597   1.158   1_556  T
C596        N598   1.157       .  T
C601        C602   1.410       .  A
C601        C606   1.414       .  A
C602        C603   1.415       .  A
C602        C607   1.449       .  S
C603        C604   1.433       .  A
C603        C610   1.454       .  S
C604        C605   1.416       .  A
C605        C606   1.413       .  A
C605        C608   1.449       .  S
C606        C609   1.448       .  S
C607        N614   1.156       .  T
C608        N613   1.158       .  T
C609        N611   1.157       .  T
C610        N612   1.158       .  T
C615        C616   1.409       .  A
C615        C620   1.417       .  A
C616        C617   1.399       .  A
C616        C621   1.454       .  S
C617        C618   1.425       .  A
C617        C624   1.453       .  S
C618        C619   1.423       .  A
C619        C620   1.410       .  A
C619        C622   1.452       .  S
C620        C623   1.454   1_554  S
C621        N628   1.157       .  T
C622        N627   1.157       .  T
C623        N625   1.158       .  T
C624        N626   1.157       .  T
C629        C630   1.425   1_556  A
C629        C634   1.418       .  A
C630        C631   1.409       .  A
C630        C635   1.453       .  S
C631        C632   1.416       .  A
C631        C638   1.456       .  S
C632        C633   1.423   1_554  A
C633        C634   1.434       .  A
C633        C636   1.447       .  S
C634        C637   1.447       .  S
C635        N642   1.158       .  T
C636        N641   1.157       .  T
C637        N639   1.157       .  T
C638        N640   1.158       .  T
C643        C644   1.409       .  A
C643        C648   1.418   1_556  A
C644        C645   1.418       .  A
C644        C649   1.448       .  S
C645        C646   1.416   1_556  A
C645       C1420   1.445       .  S
C646       C1235   1.507       .  S
C646        C647   1.413       .  A
C647        C648   1.419       .  A
C647        C650   1.450       .  S
C648        C651   1.447       .  S
C649        N656   1.157       .  T
C650        N655   1.157       .  T
C651        N653   1.157       .  T
C652       C1413   1.445   1_455  S
C652        N654   1.156       .  T
C657        C658   1.419       .  A
C657        C662   1.404       .  A
C658        C659   1.423       .  A
C658        C663   1.449       .  S
C659        C660   1.412       .  A
C659        C666   1.448       .  S
C660        C661   1.420       .  A
C661        C662   1.414       .  A
C662        C665   1.452       .  S
C663        N670   1.157       .  T
C664        N669   1.156       .  T
C665        N667   1.157       .  T
C666        N668   1.157       .  T
C671        C672   1.417       .  A
C671        C676   1.412       .  A
C672        C673   1.402       .  A
C672        C677   1.452       .  S
C673        C674   1.412       .  A
C673        C680   1.454       .  S
C674        C675   1.419       .  A
C675        C676   1.425       .  A
C675        C678   1.448       .  S
C676        C679   1.448       .  S
C677        N684   1.157       .  T
C678        N683   1.157       .  T
C679        N681   1.157       .  T
C680        N682   1.157       .  T
C685        C686   1.408       .  A
C685        C690   1.419       .  A
C686        C687   1.413       .  A
C686        C691   1.448       .  S
C687        C688   1.410       .  A
C688        C689   1.405       .  A
C689        C690   1.413       .  A
C689        C692   1.450       .  S
C690        C693   1.448       .  S
C691        N698   1.157       .  T
C692        N697   1.157       .  T
C693        N695   1.157       .  T
C694        N696   1.156       .  T
C699        C700   1.420       .  A
C699        C704   1.424       .  A
C700        C701   1.403       .  A
C700        C705   1.451       .  S
C701        C702   1.413       .  A
C701        C708   1.454       .  S
C702       C1173   1.497       .  S
C702        C703   1.412       .  A
C703        C704   1.427       .  A
C703        C706   1.448       .  S
C704        C707   1.448       .  S
C705        N712   1.157       .  T
C706       N1479   1.157       .  T
C707        N709   1.157       .  T
C708        N710   1.156       .  T
N711       C1474   1.157       .  T
C713        C714   1.411       .  A
C713        C718   1.406       .  A
C714        C715   1.417       .  A
C714        C719   1.449       .  S
C715        C716   1.413       .  A
C715        C722   1.449       .  S
C716        C717   1.410       .  A
C717        C718   1.398       .  A
C717        C720   1.447       .  S
C718        C721   1.451       .  S
C719        N726   1.157       .  T
C720        N725   1.157       .  T
C721        N723   1.157       .  T
C722        N724   1.157       .  T
C727        C728   1.405       .  A
C727        C732   1.412       .  A
C728        C729   1.409       .  A
C728        C733   1.453       .  S
C729        C730   1.431       .  A
C729        C736   1.453       .  S
C730       C1169   1.519   1_455  S
C730        C731   1.420       .  A
C731        C732   1.423       .  A
C731       C1502   1.448       .  S
C732        C735   1.447       .  S
C733        N740   1.157       .  T
C734       C1499   1.448       .  S
C734        N739   1.157       .  T
C735        N737   1.157       .  T
C736        N738   1.158   1_455  T
C741        C742   1.414       .  A
C741        C746   1.405       .  A
C742        C743   1.420       .  A
C742        C747   1.450       .  S
C743        C744   1.420       .  A
C743        C750   1.449       .  S
C744        C745   1.424       .  A
C745        C746   1.411       .  A
C745        C748   1.450       .  S
C746        C749   1.453       .  S
C747        N754   1.157       .  T
C748        N753   1.157       .  T
C749        N751   1.157       .  T
C750        N752   1.157       .  T
C755        C756   1.412       .  A
C755        C760   1.408       .  A
C756        C757   1.413       .  A
C756        C761   1.449       .  S
C757        C758   1.409       .  A
C757        C764   1.450       .  S
C758        C759   1.405       .  A
C759        C760   1.397       .  A
C759        C762   1.451       .  S
C760        C763   1.448       .  S
C761        N768   1.157       .  T
C762        N767   1.157       .  T
C763        N765   1.156       .  T
C764        N766   1.157       .  T
O769        C784   1.274       .  A
O769       Al777   1.949       .  S
C770        O780   1.271       .  A
C770        O771   1.263       .  A
C770       C1139   1.468       .  S
O771       Al773   1.889       .  S
O772        C774   1.261       .  A
O772       Al773   1.932       .  S
Al773       O781   1.921       .  S
Al773       O783   1.873       .  S
Al773       O782   1.778       .  S
C774        O787   1.254       .  A
C774       C1069   1.488       .  S
O775        C785   1.275       .  A
O775       Al777   1.981       .  S
O776        C789   1.267   1_655  A
O776       Al786   1.967       .  S
Al777       O790   1.857       .  S
Al777       O787   1.899       .  S
Al777       O782   1.771       .  S
O778        C785   1.252       .  A
O778       Al786   1.852       .  S
O779        C788   1.263       .  A
O779       Al786   1.912       .  S
O780       Al786   1.940       .  S
O781        C788   1.264       .  A
O782       Al786   1.785       .  S
O783        C784   1.258       .  A
C784       C1097   1.473       .  S
C788       C1125   1.487       .  S
C789        O790   1.249   1_455  A
O791        C806   1.279       .  A
O791       Al799   1.969       .  S
C792        O802   1.271       .  A
C792        O793   1.261       .  A
C792        C999   1.484   1_556  S
O793       Al795   1.874       .  S
O794        C796   1.264       .  A
O794       Al795   1.933       .  S
Al795       O803   1.946       .  S
Al795       O805   1.882       .  S
Al795       O804   1.773       .  S
C796        O809   1.261       .  A
C796       C1041   1.495       .  S
O797        C807   1.276       .  A
O797       Al799   2.003       .  S
O798        C811   1.272       .  A
O798       Al808   1.974       .  S
Al799       O812   1.864       .  S
Al799       O809   1.914       .  S
Al799       O804   1.773       .  S
O800        C807   1.251       .  A
O800       Al808   1.868       .  S
O801        C810   1.265       .  A
O801       Al808   1.923       .  S
O802       Al808   1.928       .  S
O803        C810   1.266       .  A
O804       Al808   1.774       .  S
O805        C806   1.263       .  A
C806       C1100   1.478       .  S
C807       C1013   1.521       .  S
C810       C1027   1.500       .  S
C811        O812   1.252       .  A
C811       C1055   1.492       .  S
O813        C828   1.264       .  A
O813       Al821   1.907       .  S
C814        O824   1.274       .  A
C814        O815   1.258       .  A
C814        C988   1.514       .  S
O815       Al817   1.887       .  S
O816        C818   1.261       .  A
O816       Al817   1.900       .  S
Al817       O825   1.898       .  S
Al817       O827   1.870       .  S
Al817       O826   1.762       .  S
C818        O831   1.258       .  A
C818       C1058   1.496       .  S
O819        C829   1.265       .  A
O819       Al821   1.924       .  S
O820        C833   1.278       .  A
O820       Al830   1.964       .  S
Al821       O834   1.905       .  S
Al821       O831   1.919       .  S
Al821       O826   1.792       .  S
O822        C829   1.261       .  A
O822       Al830   1.902       .  S
O823        C832   1.261       .  A
O823       Al830   1.943       .  S
O824       Al830   1.951       .  S
O825        C832   1.256       .  A
O826       Al830   1.790       .  S
O827        C828   1.253       .  A
C828        C974   1.483       .  S
C829       C1456   1.483       .  S
C832       C1083   1.508       .  S
C833        O834   1.264       .  A
C833       C1428   1.505       .  S
O835        C850   1.280       .  A
O835       Al843   1.967       .  S
C836        O846   1.281   1_554  A
C836        O837   1.265       .  A
C836        C971   1.498   1_554  S
O837       Al839   1.871       .  S
O838        C840   1.252       .  A
O838       Al839   1.903       .  S
Al839       O847   1.897       .  S
Al839       O849   1.892       .  S
Al839       O848   1.774       .  S
C840        O853   1.250       .  A
C840        C929   1.480       .  S
O841        C851   1.267       .  A
O841       Al843   1.940       .  S
O842        C855   1.274       .  A
O842       Al852   1.972       .  S
Al843       O856   1.835       .  S
Al843       O853   1.904       .  S
Al843       O848   1.785       .  S
O844        C851   1.260       .  A
O844       Al852   1.900       .  S
O845        C854   1.264       .  A
O845       Al852   1.953       .  S
O846       Al852   1.965   1_556  S
O847        C854   1.255       .  A
O848       Al852   1.793       .  S
O849        C850   1.267       .  A
C850        C957   1.486       .  S
C854       C1016   1.518       .  S
C855        O856   1.248       .  A
O857        C872   1.278       .  A
O857       Al865   1.964       .  S
C858        O868   1.280       .  A
C858        O859   1.267       .  A
C858        C985   1.505       .  S
O859       Al861   1.885       .  S
O860        C862   1.252       .  A
O860       Al861   1.892       .  S
Al861       O869   1.888       .  S
Al861       O871   1.899       .  S
Al861       O870   1.786       .  S
C862        O875   1.254       .  A
C862        C915   1.491       .  S
O863        C873   1.265       .  A
O863       Al865   1.940       .  S
O864        C877   1.271       .  A
O864       Al874   1.949       .  S
Al865       O878   1.878       .  S
Al865       O875   1.912       .  S
Al865       O870   1.794       .  S
O866        C873   1.253       .  A
O866       Al874   1.870       .  S
O867        C876   1.254       .  A
O867       Al874   1.921       .  S
O868       Al874   1.963       .  S
O869        C876   1.251       .  A
O870       Al874   1.793       .  S
O871        C872   1.267       .  A
C872        C960   1.490       .  S
C873       C1128   1.511       .  S
C876       C1111   1.491       .  S
C877        O878   1.257       .  A
C877        C904   1.513       .  S
O879        C894   1.276       .  A
O879       Al887   1.946       .  S
C880        O890   1.275       .  A
C880        O881   1.263       .  A
C880       C1142   1.463       .  S
O881       Al883   1.873       .  S
O882        C884   1.256       .  A
O882       Al883   1.914       .  S
Al883       O891   1.926       .  S
Al883       O893   1.860       .  S
Al883       O892   1.777       .  S
C884        O897   1.255       .  A
C884        C943   1.489       .  S
O885        C895   1.266       .  A
O885       Al887   1.947       .  S
O886        C899   1.264       .  A
O886       Al896   1.922       .  S
Al887       O900   1.885       .  S
Al887       O897   1.913       .  S
Al887       O892   1.794       .  S
O888        C895   1.248       .  A
O888       Al896   1.839       .  S
O889        C898   1.251       .  A
O889       Al896   1.907       .  S
O890       Al896   1.937       .  S
O891        C898   1.256       .  A
O892       Al896   1.783       .  S
O893        C894   1.264       .  A
C894       C1002   1.498       .  S
C895       C1302   1.510   1_545  S
C898        C901   1.495       .  S
C899        O900   1.258       .  A
C899       C1316   1.496   1_545  S
C901        C902   1.403       .  A
C901        C906   1.415       .  A
C902        C903   1.416       .  A
C902        C907   1.449       .  S
C903        C904   1.427       .  A
C903        C910   1.451       .  S
C904        C905   1.420       .  A
C905        C906   1.420       .  A
C905        C908   1.450       .  S
C906        C909   1.450       .  S
C907        N914   1.157       .  T
C908        N913   1.157       .  T
C909        N911   1.157       .  T
C910        N912   1.157       .  T
C915        C916   1.413       .  A
C915        C920   1.419       .  A
C916        C917   1.403       .  A
C916        C921   1.453       .  S
C917        C918   1.424       .  A
C917       C1308   1.455       .  S
C918       C1279   1.510       .  S
C918        C919   1.418       .  A
C919        C920   1.421       .  A
C919        C922   1.449       .  S
C920        C923   1.450       .  S
C921        N928   1.158       .  T
C922        N927   1.157       .  T
C923        N925   1.157       .  T
C924       C1301   1.455       .  S
C924        N926   1.158   1_565  T
C929        C930   1.414       .  A
C929        C934   1.405       .  A
C930        C931   1.415       .  A
C930        C935   1.450       .  S
C931        C932   1.414       .  A
C931        C938   1.450       .  S
C932       C1283   1.496       .  S
C932        C933   1.417       .  A
C933        C934   1.410       .  A
C933       C1320   1.446       .  S
C934        C937   1.451       .  S
C935        N942   1.157       .  T
C936       C1317   1.446   1_545  S
C936        N941   1.156       .  T
C937        N939   1.157       .  T
C938        N940   1.157       .  T
C943        C944   1.413       .  A
C943        C948   1.403       .  A
C944        C945   1.421       .  A
C944        C949   1.447       .  S
C945        C946   1.418       .  A
C946        C947   1.434       .  A
C947        C948   1.411       .  A
C947        C950   1.453       .  S
C948        C951   1.454       .  S
C949        N956   1.156       .  T
C950        N955   1.158   1_655  T
C951        N953   1.157       .  T
C952        N954   1.157       .  T
C957        C958   1.413       .  A
C957        C962   1.409       .  A
C958        C959   1.421       .  A
C958        C963   1.448       .  S
C959        C960   1.414       .  A
C959        C966   1.449       .  S
C960        C961   1.411       .  A
C961        C962   1.406       .  A
C961        C964   1.445       .  S
C962        C965   1.451       .  S
C963        N970   1.157       .  T
C964        N969   1.155       .  T
C965        N967   1.157       .  T
C966        N968   1.157       .  T
C971        C972   1.416       .  A
C971        C976   1.428       .  A
C972        C973   1.409       .  A
C972        C977   1.452       .  S
C973        C974   1.414       .  A
C973        C980   1.453       .  S
C974        C975   1.408       .  A
C975        C976   1.409       .  A
C975        C978   1.454       .  S
C976        C979   1.454       .  S
C977        N984   1.158       .  T
C978        N983   1.157       .  T
C979        N981   1.158   1_556  T
C980        N982   1.157       .  T
C985        C986   1.410       .  A
C985        C990   1.414       .  A
C986        C987   1.415       .  A
C986        C991   1.449       .  S
C987        C988   1.433       .  A
C987        C994   1.454       .  S
C988        C989   1.416       .  A
C989        C990   1.413       .  A
C989        C992   1.449       .  S
C990        C993   1.448       .  S
C991        N998   1.156       .  T
C992        N997   1.158       .  T
C993        N995   1.157       .  T
C994        N996   1.158       .  T
C999       C1000   1.409       .  A
C999       C1004   1.417       .  A
C1000      C1001   1.399       .  A
C1000      C1005   1.454       .  S
C1001      C1002   1.425       .  A
C1001      C1008   1.453       .  S
C1002      C1003   1.423       .  A
C1003      C1004   1.410       .  A
C1003      C1006   1.452       .  S
C1004      C1007   1.454   1_554  S
C1005      N1012   1.157       .  T
C1006      N1011   1.157       .  T
C1007      N1009   1.158       .  T
C1008      N1010   1.157       .  T
C1013      C1014   1.425   1_556  A
C1013      C1018   1.418       .  A
C1014      C1015   1.409       .  A
C1014      C1019   1.453       .  S
C1015      C1016   1.415       .  A
C1015      C1022   1.456       .  S
C1016      C1017   1.423   1_554  A
C1017      C1018   1.434       .  A
C1017      C1020   1.447       .  S
C1018      C1021   1.447       .  S
C1019      N1026   1.158       .  T
C1020      N1025   1.157       .  T
C1021      N1023   1.157       .  T
C1022      N1024   1.158       .  T
C1027      C1028   1.409       .  A
C1027      C1032   1.418   1_556  A
C1028      C1029   1.418       .  A
C1028      C1033   1.448       .  S
C1029      C1030   1.416   1_556  A
C1030      C1031   1.413       .  A
C1031      C1032   1.419       .  A
C1031      C1034   1.450       .  S
C1032      C1035   1.447       .  S
C1033      N1040   1.157       .  T
C1034      N1039   1.157       .  T
C1035      N1037   1.157       .  T
C1036      N1038   1.156       .  T
C1041      C1042   1.419       .  A
C1041      C1046   1.404       .  A
C1042      C1043   1.423       .  A
C1042      C1047   1.449       .  S
C1043      C1044   1.412       .  A
C1043      C1050   1.448       .  S
C1044      C1217   1.505       .  S
C1044      C1045   1.420       .  A
C1045      C1046   1.414       .  A
C1045      C1432   1.445   1_545  S
C1046      C1049   1.452       .  S
C1047      N1054   1.157       .  T
C1048      C1429   1.445       .  S
C1048      N1053   1.156       .  T
C1049      N1051   1.157       .  T
C1050      N1052   1.157       .  T
C1055      C1056   1.417       .  A
C1055      C1060   1.412       .  A
C1056      C1057   1.402       .  A
C1056      C1061   1.452       .  S
C1057      C1058   1.412       .  A
C1057      C1064   1.454       .  S
C1058      C1059   1.419       .  A
C1059      C1060   1.425       .  A
C1059      C1062   1.448       .  S
C1060      C1063   1.448       .  S
C1061      N1068   1.157       .  T
C1062      N1067   1.157       .  T
C1063      N1065   1.157       .  T
C1064      N1066   1.157       .  T
C1069      C1070   1.408       .  A
C1069      C1074   1.419       .  A
C1070      C1071   1.413       .  A
C1070      C1075   1.448       .  S
C1071      C1072   1.410       .  A
C1071      C1462   1.445   1_545  S
C1072      C1213   1.483       .  S
C1072      C1073   1.405       .  A
C1073      C1074   1.413       .  A
C1073      C1076   1.450       .  S
C1074      C1077   1.448       .  S
C1075      N1082   1.157       .  T
C1076      N1081   1.157       .  T
C1077      N1079   1.157       .  T
C1078      C1455   1.445       .  S
C1078      N1080   1.156       .  T
C1083      C1084   1.420       .  A
C1083      C1088   1.424       .  A
C1084      C1085   1.403       .  A
C1084      C1089   1.451       .  S
C1085      C1086   1.413       .  A
C1085      C1092   1.454       .  S
C1086      C1087   1.412       .  A
C1087      C1088   1.427       .  A
C1087      C1090   1.448       .  S
C1088      C1091   1.448       .  S
C1089      N1096   1.157       .  T
C1091      N1093   1.157       .  T
C1092      N1094   1.156       .  T
C1097      C1098   1.411       .  A
C1097      C1102   1.406       .  A
C1098      C1099   1.417       .  A
C1098      C1103   1.449       .  S
C1099      C1100   1.413       .  A
C1099      C1106   1.449       .  S
C1100      C1101   1.410       .  A
C1101      C1102   1.398       .  A
C1101      C1104   1.447       .  S
C1102      C1105   1.451       .  S
C1103      N1110   1.157       .  T
C1104      N1109   1.157       .  T
C1105      N1107   1.157       .  T
C1106      N1108   1.157       .  T
C1111      C1112   1.405       .  A
C1111      C1116   1.412       .  A
C1112      C1113   1.409       .  A
C1112      C1117   1.453       .  S
C1113      C1114   1.431       .  A
C1113      C1120   1.453       .  S
C1114      C1115   1.420       .  A
C1115      C1116   1.423       .  A
C1116      C1119   1.447       .  S
C1117      N1124   1.157       .  T
C1118      N1123   1.157       .  T
C1119      N1121   1.157       .  T
C1120      N1122   1.158       .  T
C1125      C1126   1.414       .  A
C1125      C1130   1.405       .  A
C1126      C1127   1.420       .  A
C1126      C1131   1.450       .  S
C1127      C1128   1.420       .  A
C1127      C1134   1.449       .  S
C1128      C1129   1.424       .  A
C1129      C1130   1.411       .  A
C1129      C1132   1.450       .  S
C1130      C1133   1.453       .  S
C1131      N1138   1.157       .  T
C1132      N1137   1.157       .  T
C1133      N1135   1.157       .  T
C1134      N1136   1.157       .  T
C1139      C1140   1.412       .  A
C1139      C1144   1.408       .  A
C1140      C1141   1.412       .  A
C1140      C1145   1.449       .  S
C1141      C1142   1.409       .  A
C1141      C1148   1.450       .  S
C1142      C1143   1.405       .  A
C1143      C1144   1.397       .  A
C1143      C1146   1.451       .  S
C1144      C1147   1.448       .  S
C1145      N1152   1.157       .  T
C1146      N1151   1.157       .  T
C1147      N1149   1.156       .  T
C1148      N1150   1.157       .  T
O1153      C1168   1.274       .  A
O1153     Al1161   1.949       .  S
C1154      O1164   1.271       .  A
C1154      O1155   1.263       .  A
C1154      C1523   1.468       .  S
O1155     Al1157   1.889       .  S
O1156      C1158   1.261       .  A
O1156     Al1157   1.932       .  S
Al1157     O1165   1.921       .  S
Al1157     O1167   1.873       .  S
Al1157     O1166   1.778       .  S
C1158      O1171   1.254       .  A
C1158      C1453   1.488       .  S
O1159      C1169   1.275       .  A
O1159     Al1161   1.981       .  S
O1160      C1173   1.267   1_655  A
O1160     Al1170   1.967       .  S
Al1161     O1174   1.857       .  S
Al1161     O1171   1.899       .  S
Al1161     O1166   1.771       .  S
O1162      C1169   1.252       .  A
O1162     Al1170   1.852       .  S
O1163      C1172   1.263       .  A
O1163     Al1170   1.912       .  S
O1164     Al1170   1.940       .  S
O1165      C1172   1.264       .  A
O1166     Al1170   1.785       .  S
O1167      C1168   1.258       .  A
C1168      C1481   1.473       .  S
C1172      C1509   1.487       .  S
C1173      O1174   1.249   1_455  A
O1175      C1190   1.279       .  A
O1175     Al1183   1.969       .  S
C1176      O1186   1.271       .  A
C1176      O1177   1.261       .  A
C1176      C1383   1.484   1_556  S
O1177     Al1179   1.874       .  S
O1178      C1180   1.264       .  A
O1178     Al1179   1.934       .  S
Al1179     O1187   1.947       .  S
Al1179     O1189   1.882       .  S
Al1179     O1188   1.773       .  S
C1180      O1193   1.261       .  A
C1180      C1425   1.495       .  S
O1181      C1191   1.276       .  A
O1181     Al1183   2.003       .  S
O1182      C1195   1.272       .  A
O1182     Al1192   1.974       .  S
Al1183     O1196   1.864       .  S
Al1183     O1193   1.914       .  S
Al1183     O1188   1.773       .  S
O1184      C1191   1.251       .  A
O1184     Al1192   1.868       .  S
O1185      C1194   1.265       .  A
O1185     Al1192   1.923       .  S
O1186     Al1192   1.928       .  S
O1187      C1194   1.266       .  A
O1188     Al1192   1.774       .  S
O1189      C1190   1.263       .  A
C1190      C1484   1.478       .  S
C1191      C1397   1.521       .  S
C1194      C1411   1.500       .  S
C1195      O1196   1.252       .  A
C1195      C1439   1.492       .  S
O1197      C1212   1.264       .  A
O1197     Al1205   1.907       .  S
C1198      O1208   1.274       .  A
C1198      O1199   1.258       .  A
C1198      C1372   1.514       .  S
O1199     Al1201   1.887       .  S
O1200      C1202   1.261       .  A
O1200     Al1201   1.900       .  S
Al1201     O1209   1.898       .  S
Al1201     O1211   1.870       .  S
Al1201     O1210   1.762       .  S
C1202      O1215   1.258       .  A
C1202      C1442   1.496       .  S
O1203      C1213   1.265   1_565  A
O1203     Al1205   1.924       .  S
O1204      C1217   1.278   1_565  A
O1204     Al1214   1.964       .  S
Al1205     O1218   1.905   1_565  S
Al1205     O1215   1.919       .  S
Al1205     O1210   1.792       .  S
O1206      C1213   1.261       .  A
O1206     Al1214   1.902   1_545  S
O1207      C1216   1.261       .  A
O1207     Al1214   1.943       .  S
O1208     Al1214   1.951       .  S
O1209      C1216   1.256       .  A
O1210     Al1214   1.790       .  S
O1211      C1212   1.253       .  A
C1212      C1358   1.482       .  S
C1216      C1467   1.509       .  S
C1217      O1218   1.264       .  A
O1219      C1234   1.280       .  A
O1219     Al1227   1.967       .  S
C1220      O1230   1.280   1_554  A
C1220      O1221   1.265       .  A
C1220      C1355   1.497   1_554  S
O1221     Al1223   1.871       .  S
O1222      C1224   1.252       .  A
O1222     Al1223   1.902       .  S
Al1223     O1231   1.897       .  S
Al1223     O1233   1.892       .  S
Al1223     O1232   1.774       .  S
C1224      O1237   1.250       .  A
C1224      C1313   1.480       .  S
O1225      C1235   1.267       .  A
O1225     Al1227   1.940       .  S
O1226      C1239   1.274       .  A
O1226     Al1236   1.972       .  S
Al1227     O1240   1.835       .  S
Al1227     O1237   1.904       .  S
Al1227     O1232   1.785       .  S
O1228      C1235   1.260       .  A
O1228     Al1236   1.900       .  S
O1229      C1238   1.264       .  A
O1229     Al1236   1.953       .  S
O1230     Al1236   1.965   1_556  S
O1231      C1238   1.255       .  A
O1232     Al1236   1.793       .  S
O1233      C1234   1.267       .  A
C1234      C1341   1.486       .  S
C1238      C1400   1.518       .  S
C1239      O1240   1.248       .  A
O1241      C1256   1.278       .  A
O1241     Al1249   1.964       .  S
C1242      O1252   1.280       .  A
C1242      O1243   1.267       .  A
C1242      C1369   1.505       .  S
O1243     Al1245   1.885       .  S
O1244      C1246   1.252       .  A
O1244     Al1245   1.892       .  S
Al1245     O1253   1.888       .  S
Al1245     O1255   1.899       .  S
Al1245     O1254   1.786       .  S
C1246      O1259   1.254       .  A
C1246      C1299   1.491       .  S
O1247      C1257   1.265       .  A
O1247     Al1249   1.940       .  S
O1248      C1261   1.271       .  A
O1248     Al1258   1.949       .  S
Al1249     O1262   1.878       .  S
Al1249     O1259   1.912       .  S
Al1249     O1254   1.794       .  S
O1250      C1257   1.253       .  A
O1250     Al1258   1.871       .  S
O1251      C1260   1.255       .  A
O1251     Al1258   1.921       .  S
O1252     Al1258   1.963       .  S
O1253      C1260   1.251       .  A
O1254     Al1258   1.793       .  S
O1255      C1256   1.267       .  A
C1256      C1344   1.490       .  S
C1257      C1512   1.511       .  S
C1260      C1495   1.491       .  S
C1261      O1262   1.257       .  A
C1261      C1288   1.513       .  S
O1263      C1278   1.276       .  A
O1263     Al1271   1.946       .  S
C1264      O1274   1.275       .  A
C1264      O1265   1.263       .  A
C1264      C1526   1.463       .  S
O1265     Al1267   1.873       .  S
O1266      C1268   1.256       .  A
O1266     Al1267   1.913       .  S
Al1267     O1275   1.926       .  S
Al1267     O1277   1.860       .  S
Al1267     O1276   1.777       .  S
C1268      O1281   1.255       .  A
C1268      C1327   1.489       .  S
O1269      C1279   1.266       .  A
O1269     Al1271   1.947       .  S
O1270      C1283   1.264       .  A
O1270     Al1280   1.923       .  S
Al1271     O1284   1.885       .  S
Al1271     O1281   1.913       .  S
Al1271     O1276   1.794       .  S
O1272      C1279   1.248       .  A
O1272     Al1280   1.839       .  S
O1273      C1282   1.251       .  A
O1273     Al1280   1.906       .  S
O1274     Al1280   1.937       .  S
O1275      C1282   1.256       .  A
O1276     Al1280   1.783       .  S
O1277      C1278   1.264       .  A
C1278      C1386   1.498       .  S
C1282      C1285   1.495       .  S
C1283      O1284   1.258       .  A
C1285      C1286   1.403       .  A
C1285      C1290   1.415       .  A
C1286      C1287   1.416       .  A
C1286      C1291   1.449       .  S
C1287      C1288   1.427       .  A
C1287      C1294   1.451       .  S
C1288      C1289   1.420       .  A
C1289      C1290   1.420       .  A
C1289      C1292   1.450       .  S
C1290      C1293   1.450       .  S
C1291      N1298   1.157       .  T
C1292      N1297   1.157       .  T
C1293      N1295   1.157       .  T
C1294      N1296   1.157       .  T
C1299      C1300   1.413       .  A
C1299      C1304   1.419       .  A
C1300      C1301   1.403       .  A
C1300      C1305   1.453       .  S
C1301      C1302   1.424       .  A
C1302      C1303   1.418       .  A
C1303      C1304   1.421       .  A
C1303      C1306   1.449       .  S
C1304      C1307   1.450       .  S
C1305      N1312   1.158       .  T
C1306      N1311   1.157       .  T
C1307      N1309   1.157       .  T
C1308      N1310   1.158       .  T
C1313      C1314   1.414       .  A
C1313      C1318   1.405       .  A
C1314      C1315   1.415       .  A
C1314      C1319   1.450       .  S
C1315      C1316   1.414       .  A
C1315      C1322   1.450       .  S
C1316      C1317   1.417       .  A
C1317      C1318   1.410       .  A
C1318      C1321   1.451       .  S
C1319      N1326   1.157       .  T
C1320      N1325   1.156       .  T
C1321      N1323   1.157       .  T
C1322      N1324   1.157       .  T
C1327      C1328   1.413       .  A
C1327      C1332   1.403       .  A
C1328      C1329   1.421       .  A
C1328      C1333   1.447       .  S
C1329      C1330   1.418       .  A
C1330      C1331   1.434       .  A
C1331      C1332   1.411       .  A
C1331      C1334   1.453       .  S
C1332      C1335   1.454       .  S
C1333      N1340   1.156       .  T
C1334      N1339   1.158   1_655  T
C1335      N1337   1.157       .  T
C1336      N1338   1.157       .  T
C1341      C1342   1.413       .  A
C1341      C1346   1.409       .  A
C1342      C1343   1.421       .  A
C1342      C1347   1.448       .  S
C1343      C1344   1.414       .  A
C1343      C1350   1.449       .  S
C1344      C1345   1.411       .  A
C1345      C1346   1.406       .  A
C1345      C1348   1.445       .  S
C1346      C1349   1.451       .  S
C1347      N1354   1.157       .  T
C1348      N1353   1.155       .  T
C1349      N1351   1.157       .  T
C1350      N1352   1.157       .  T
C1355      C1356   1.416       .  A
C1355      C1360   1.428       .  A
C1356      C1357   1.409       .  A
C1356      C1361   1.452       .  S
C1357      C1358   1.414       .  A
C1357      C1364   1.453       .  S
C1358      C1359   1.408       .  A
C1359      C1360   1.409       .  A
C1359      C1362   1.454       .  S
C1360      C1363   1.454       .  S
C1361      N1368   1.158       .  T
C1362      N1367   1.157       .  T
C1363      N1365   1.158   1_556  T
C1364      N1366   1.157       .  T
C1369      C1370   1.410       .  A
C1369      C1374   1.414       .  A
C1370      C1371   1.415       .  A
C1370      C1375   1.449       .  S
C1371      C1372   1.433       .  A
C1371      C1378   1.454       .  S
C1372      C1373   1.416       .  A
C1373      C1374   1.413       .  A
C1373      C1376   1.449       .  S
C1374      C1377   1.448       .  S
C1375      N1382   1.156       .  T
C1376      N1381   1.158       .  T
C1377      N1379   1.157       .  T
C1378      N1380   1.158       .  T
C1383      C1384   1.409       .  A
C1383      C1388   1.417       .  A
C1384      C1385   1.399       .  A
C1384      C1389   1.454       .  S
C1385      C1386   1.425       .  A
C1385      C1392   1.453       .  S
C1386      C1387   1.423       .  A
C1387      C1388   1.410       .  A
C1387      C1390   1.452       .  S
C1388      C1391   1.454   1_554  S
C1389      N1396   1.157       .  T
C1390      N1395   1.157       .  T
C1391      N1393   1.158       .  T
C1392      N1394   1.157       .  T
C1397      C1398   1.425   1_556  A
C1397      C1402   1.418       .  A
C1398      C1399   1.409       .  A
C1398      C1403   1.453       .  S
C1399      C1400   1.416       .  A
C1399      C1406   1.456       .  S
C1400      C1401   1.423   1_554  A
C1401      C1402   1.434       .  A
C1401      C1404   1.447       .  S
C1402      C1405   1.447       .  S
C1403      N1410   1.158       .  T
C1404      N1409   1.157       .  T
C1405      N1407   1.157       .  T
C1406      N1408   1.158       .  T
C1411      C1412   1.409       .  A
C1411      C1416   1.418   1_556  A
C1412      C1413   1.418       .  A
C1412      C1417   1.448       .  S
C1413      C1414   1.416   1_556  A
C1414      C1415   1.413       .  A
C1415      C1416   1.419       .  A
C1415      C1418   1.450       .  S
C1416      C1419   1.447       .  S
C1417      N1424   1.157       .  T
C1418      N1423   1.157       .  T
C1419      N1421   1.157       .  T
C1420      N1422   1.156       .  T
C1425      C1426   1.419       .  A
C1425      C1430   1.404       .  A
C1426      C1427   1.423       .  A
C1426      C1431   1.449       .  S
C1427      C1428   1.412       .  A
C1427      C1434   1.448       .  S
C1428      C1429   1.420       .  A
C1429      C1430   1.414       .  A
C1430      C1433   1.452       .  S
C1431      N1438   1.157       .  T
C1432      N1437   1.156       .  T
C1433      N1435   1.157       .  T
C1434      N1436   1.157       .  T
C1439      C1440   1.417       .  A
C1439      C1444   1.412       .  A
C1440      C1441   1.402       .  A
C1440      C1445   1.452       .  S
C1441      C1442   1.412       .  A
C1441      C1448   1.454       .  S
C1442      C1443   1.419       .  A
C1443      C1444   1.425       .  A
C1443      C1446   1.448       .  S
C1444      C1447   1.448       .  S
C1445      N1452   1.157       .  T
C1446      N1451   1.157       .  T
C1447      N1449   1.157       .  T
C1448      N1450   1.157       .  T
C1453      C1454   1.408       .  A
C1453      C1458   1.419       .  A
C1454      C1455   1.413       .  A
C1454      C1459   1.448       .  S
C1455      C1456   1.410       .  A
C1456      C1457   1.405       .  A
C1457      C1458   1.413       .  A
C1457      C1460   1.450       .  S
C1458      C1461   1.448       .  S
C1459      N1466   1.157       .  T
C1460      N1465   1.157       .  T
C1461      N1463   1.157       .  T
C1462      N1464   1.156       .  T
C1467      C1468   1.420       .  A
C1467      C1472   1.424       .  A
C1468      C1469   1.403       .  A
C1468      C1473   1.451       .  S
C1469      C1470   1.413       .  A
C1469      C1476   1.454       .  S
C1470      C1471   1.412       .  A
C1471      C1472   1.427       .  A
C1471      C1474   1.448       .  S
C1472      C1475   1.448       .  S
C1473      N1480   1.157       .  T
C1475      N1477   1.157       .  T
C1476      N1478   1.156       .  T
C1481      C1482   1.411       .  A
C1481      C1486   1.406       .  A
C1482      C1483   1.417       .  A
C1482      C1487   1.449       .  S
C1483      C1484   1.413       .  A
C1483      C1490   1.449       .  S
C1484      C1485   1.410       .  A
C1485      C1486   1.398       .  A
C1485      C1488   1.447       .  S
C1486      C1489   1.451       .  S
C1487      N1494   1.157       .  T
C1488      N1493   1.157       .  T
C1489      N1491   1.157       .  T
C1490      N1492   1.157       .  T
C1495      C1496   1.405       .  A
C1495      C1500   1.412       .  A
C1496      C1497   1.409       .  A
C1496      C1501   1.453       .  S
C1497      C1498   1.431       .  A
C1497      C1504   1.453       .  S
C1498      C1499   1.420       .  A
C1499      C1500   1.423       .  A
C1500      C1503   1.447       .  S
C1501      N1508   1.157       .  T
C1502      N1507   1.157       .  T
C1503      N1505   1.157       .  T
C1504      N1506   1.158       .  T
C1509      C1510   1.414       .  A
C1509      C1514   1.405       .  A
C1510      C1511   1.420       .  A
C1510      C1515   1.450       .  S
C1511      C1512   1.420       .  A
C1511      C1518   1.449       .  S
C1512      C1513   1.424       .  A
C1513      C1514   1.411       .  A
C1513      C1516   1.450       .  S
C1514      C1517   1.453       .  S
C1515      N1522   1.157       .  T
C1516      N1521   1.157       .  T
C1517      N1519   1.157       .  T
C1518      N1520   1.157       .  T
C1523      C1524   1.412       .  A
C1523      C1528   1.408       .  A
C1524      C1525   1.413       .  A
C1524      C1529   1.449       .  S
C1525      C1526   1.409       .  A
C1525      C1532   1.450       .  S
C1526      C1527   1.405       .  A
C1527      C1528   1.397       .  A
C1527      C1530   1.451       .  S
C1528      C1531   1.448       .  S
C1529      N1536   1.157       .  T
C1530      N1535   1.157       .  T
C1531      N1533   1.156       .  T
C1532      N1534   1.157       .  T
