geometry optimzed in LAMMPS
_audit_creation_date              2020-12-01 
_audit_creation_method            'lammps2cif' 
_symmetry_space_group_name_H-M    'P1' 
_symmetry_Int_Tables_number       1 
_symmetry_cell_setting            triclinic 
loop_ 
_symmetry_equiv_pos_as_xyz 
  x,y,z 
_cell_length_a                    35.18826964 
_cell_length_b                    34.93689644668617 
_cell_length_c                    34.64839567593213 
_cell_angle_alpha                 90.45705936745377 
_cell_angle_beta                  89.87268170339087 
_cell_angle_gamma                 90.00841366673568 
loop_ 
_atom_site_label 
_atom_site_type_symbol 
_atom_site_fract_x 
_atom_site_fract_y 
_atom_site_fract_z 
_atom_site_charge 
O1          O  0.18691361  0.06352123  0.52710549    -0.85300
O2          O  0.15276545  0.07983188  0.45857384    -0.82400
C3          C  0.16702187  0.11077510  0.44689278     0.98100
O4          O  0.20125641  0.11254865  0.43654861    -0.82400
O5          O  0.27708687  0.09206241  0.43536990    -0.85100
C6          C  0.28854456  0.09901651  0.46953568     1.02700
O7          O  0.27868526  0.07802815  0.49731824    -0.77800
O8          O  0.23587173  0.02823482  0.54194696    -0.78000
C9          C  0.20829504  0.04932106  0.55213996     1.02600
O10         O  0.18918369  0.98333797  0.50562387    -0.85300
O11         O  0.16334527  0.00228085  0.43576948    -0.82400
C12         C  0.15893793  0.01741678  0.40348567     0.98200
O13         O  0.17990425  0.04517873  0.39320662    -0.82400
O14         O  0.25523306  0.02181305  0.39602811    -0.85000
C15         C  0.28712838  0.01185587  0.40883515     1.02600
O16         O  0.29549072  0.01812145  0.44377812    -0.77800
O17         O  0.24603167  0.97050354  0.48294978    -0.78000
C18         C  0.21455061  0.95935370  0.49619954     1.02600
Cr19       Cr  0.17631825  0.03304192  0.48063670     1.93700
Cr20       Cr  0.22818855  0.06590783  0.41842711     1.93200
Cr21       Cr  0.26134950  0.02499965  0.48954185     1.39100
O22         O  0.22195946  0.04151256  0.46269693    -1.23100
O23         O  0.95837497  0.99941805  0.33957479    -0.85300
O24         O  0.89609121  0.95460969  0.35426190    -0.82400
C25         C  0.87156736  0.92835098  0.35273853     0.98100
O26         O  0.87938501  0.89720549  0.33546397    -0.82400
O27         O  0.88191619  0.92078681  0.25945171    -0.85100
C28         C  0.89301396  0.93842019  0.22974488     1.02700
O29         O  0.92789827  0.94611188  0.22481776    -0.77800
O30         O  0.94397339  0.00449290  0.27831167    -0.78000
C31         C  0.94860024  0.01963177  0.31130878     1.02600
O32         O  0.00599077  0.93483855  0.34824401    -0.85300
O33         O  0.94537183  0.89137642  0.37253410    -0.82400
C34         C  0.95573116  0.86011922  0.35722316     0.98200
O35         O  0.94964953  0.85416959  0.32180499    -0.82400
O36         O  0.94550606  0.87246294  0.24468202    -0.85000
C37         C  0.97963977  0.87825943  0.23482769     1.02600
O38         O  0.99687536  0.90771686  0.24684711    -0.77800
O39         O  0.01534293  0.96844915  0.29580354    -0.78000
C40         C  0.02709916  0.95560632  0.32772198     1.02600
Cr41       Cr  0.95090135  0.94382870  0.34998512     1.93700
Cr42       Cr  0.91627749  0.88907631  0.29119344     1.93200
Cr43       Cr  0.96918955  0.95453735  0.26420043     1.39100
O44         O  0.94554615  0.92925747  0.30157681    -1.23100
O45         O  0.02409827  0.22168471  0.48337124    -0.85300
O46         O  0.98406319  0.26953495  0.43617048    -0.82400
C47         C  0.95880350  0.28160920  0.41357122     0.98100
O48         O  0.92530243  0.26810242  0.41497333    -0.82400
O49         O  0.92427373  0.19006965  0.39533453    -0.85100
C50         C  0.93138768  0.15478586  0.39817800     1.02700
O51         O  0.93719148  0.14053222  0.43097937    -0.77800
O52         O  0.00732318  0.17153824  0.44875158    -0.78000
C53         C  0.03279344  0.19360087  0.46157979     1.02600
O54         O  0.96664330  0.23355653  0.54280620    -0.85300
O55         O  0.93058733  0.28663744  0.49531774    -0.82400
C56         C  0.89508350  0.28094876  0.49634727     0.98200
O57         O  0.88089778  0.25079542  0.48239013    -0.82400
O58         O  0.87539207  0.17511024  0.46234358    -0.85000
C59         C  0.88082702  0.15764859  0.49396566     1.02600
O60         O  0.91364703  0.15653213  0.50842642    -0.77800
O61         O  0.98615931  0.17589720  0.52828465    -0.78000
C62         C  0.97872980  0.20129513  0.55332582     1.02600
Cr63       Cr  0.97405756  0.24996877  0.48800303     1.93700
Cr64       Cr  0.90477298  0.22036806  0.44072736     1.93200
Cr65       Cr  0.95998543  0.16470981  0.47824996     1.39100
O66         O  0.94612071  0.21200826  0.46884595    -1.23100
O67         O  0.05142466  0.97919494  0.76706094    -0.85300
O68         O  0.06808460  0.04004622  0.81585859    -0.82400
C69         C  0.10254661  0.04660327  0.80725327     0.98100
O70         O  0.11088772  0.06340553  0.77607161    -0.82400
O71         O  0.10516576  0.08876221  0.70041226    -0.85100
C72         C  0.11388075  0.05875891  0.68215852     1.02700
O73         O  0.09231164  0.03004124  0.68350790    -0.77800
O74         O  0.03604560  0.98098438  0.70575228    -0.78000
C75         C  0.04860291  0.96302577  0.73441660     1.02600
O76         O  0.97725480  0.00958122  0.75203501    -0.85300
O77         O  0.99606724  0.07535815  0.79703521    -0.82400
C78         C  0.01445597  0.10488274  0.80740199     0.98200
O79         O  0.04797236  0.10952502  0.79587326    -0.82400
O80         O  0.03590148  0.12732448  0.71891047    -0.85000
C81         C  0.02719329  0.12014451  0.68413422     1.02600
O82         O  0.03573316  0.08819826  0.66900671    -0.77800
O83         O  0.98179654  0.04078801  0.69774294    -0.78000
C84         C  0.96354870  0.01908371  0.71970257     1.02600
Cr85       Cr  0.02439864  0.02824559  0.78006446     1.93700
Cr86       Cr  0.07282255  0.09411571  0.74736107     1.93200
Cr87       Cr  0.03712380  0.03625798  0.69263126     1.39100
O88         O  0.04455075  0.05274400  0.74004332    -1.23100
O89         O  0.74952314  0.94584505  0.49617182    -0.85300
O90         O  0.70120335  0.92715581  0.55645255    -0.82400
C91         C  0.70733745  0.89208223  0.56337005     0.98100
O92         O  0.73791191  0.88183117  0.57941701    -0.82400
O93         O  0.81405820  0.88295686  0.59886009    -0.85100
C94         C  0.83307978  0.87724663  0.56831832     1.02700
O95         O  0.82993465  0.89987754  0.54026940    -0.77800
O96         O  0.80891911  0.96413134  0.49847250    -0.78000
C97         C  0.78071082  0.95244519  0.47947837     1.02600
O98         O  0.76692447  0.01848539  0.53365260    -0.85300
O99         O  0.72310843  0.99691444  0.59593897    -0.82400
C100        C  0.71320609  0.97823476  0.62522300     0.98200
O101        O  0.72455775  0.94441216  0.63019823    -0.82400
O102        O  0.80227522  0.95067560  0.64510141    -0.85000
C103        C  0.83718679  0.95469405  0.63715565     1.02600
O104        O  0.84862454  0.94835585  0.60321269    -0.77800
O105        O  0.81973860  0.00956820  0.56560107    -0.78000
C106        C  0.79731055  0.03159587  0.54835454     1.02600
Cr107      Cr  0.73803106  0.97034359  0.54733952     1.93700
Cr108      Cr  0.77000887  0.91722886  0.61039671     1.93200
Cr109      Cr  0.82314625  0.95488773  0.55296219     1.39100
O110        O  0.77682455  0.94734449  0.57013347    -1.23100
O111        O  0.00194612  0.82431591  0.58576961    -0.85300
O112        O  0.07244084  0.85150298  0.60820572    -0.82400
C113        C  0.07689243  0.83634424  0.64083593     0.98100
O114        O  0.08305954  0.80085511  0.64317155    -0.82400
O115        O  0.08344170  0.72365099  0.62179685    -0.85100
C116        C  0.04953154  0.71207901  0.62462376     1.02700
O117        O  0.02423505  0.72370429  0.60176610    -0.77800
O118        O  0.98577451  0.77272266  0.55301919    -0.78000
C119        C  0.97673400  0.80252768  0.57194514     1.02600
O120        O  0.02724215  0.81987138  0.50807384    -0.85300
O121        O  0.09947556  0.83614934  0.53144906    -0.82400
C122        C  0.13158886  0.83443117  0.54742419     0.98200
O123        O  0.13506079  0.81697385  0.57917949    -0.82400
O124        O  0.12820882  0.74227843  0.55588252    -0.85000
C125        C  0.11389129  0.71269278  0.54076568     1.02600
O126        O  0.07834657  0.70708321  0.54194628    -0.77800
O127        O  0.04179537  0.76028427  0.49470492    -0.78000
C128        C  0.03031541  0.79281236  0.48399209     1.02600
Cr129      Cr  0.05138560  0.82921993  0.55929830     1.93700
Cr130      Cr  0.10404132  0.77172499  0.59784484     1.93200
Cr131      Cr  0.03497951  0.74374925  0.54956256     1.39100
O132        O  0.06338123  0.78130544  0.56892030    -1.23100
O133        O  0.52466071  0.18641082  0.07484261    -0.85300
O134        O  0.46087692  0.14574929  0.09100750    -0.82400
C135        C  0.44903025  0.15939588  0.12264617     0.98100
O136        O  0.43409270  0.19221221  0.12400136    -0.82400
O137        O  0.42898790  0.26899961  0.10546490    -0.85100
C138        C  0.46201512  0.28275019  0.11161230     1.02700
O139        O  0.48935809  0.27540991  0.08920588    -0.77800
O140        O  0.53621935  0.23610712  0.03903594    -0.78000
C141        C  0.54785750  0.21017362  0.06156658     1.02600
O142        O  0.50411968  0.18733009  0.99364183    -0.85300
O143        O  0.43739210  0.15423009  0.01274861    -0.82400
C144        C  0.40417400  0.15029489  0.02556981     0.98200
O145        O  0.39289023  0.17036632  0.05422728    -0.82400
O146        O  0.39024648  0.24694443  0.03380484    -0.85000
C147        C  0.40135231  0.27960232  0.02347216     1.02600
O148        O  0.43532841  0.28973822  0.02988258    -0.77800
O149        O  0.47627116  0.24197314  0.98133402    -0.78000
C150        C  0.49234515  0.21183751  0.96971597     1.02600
Cr151      Cr  0.48023278  0.17176825  0.04379995     1.93700
Cr152      Cr  0.41473302  0.21950415  0.07742102     1.93200
Cr153      Cr  0.48246558  0.25784030  0.03602231     1.39100
O154        O  0.45874487  0.21630689  0.05253458    -1.23100
O155        O  0.33719283  0.95462319  0.00318554    -0.85300
O156        O  0.33950705  0.88928740  0.96036926    -0.82400
C157        C  0.33089843  0.86286959  0.93712030     0.98100
O158        O  0.30981672  0.87013111  0.90823743    -0.82400
O159        O  0.24011969  0.87792142  0.94283526    -0.85100
C160        C  0.21594268  0.88986520  0.96700830     1.02700
O161        O  0.21555662  0.92481849  0.97724577    -0.77800
O162        O  0.28050418  0.93797823  0.02194301    -0.78000
C163        C  0.31569256  0.94151359  0.02872727     1.02600
O164        O  0.33478869  0.99916276  0.93692342    -0.85300
O165        O  0.34757486  0.93373215  0.89219661    -0.82400
C166        C  0.32790188  0.94694460  0.86521861     0.98200
O167        O  0.29255187  0.94255638  0.86585697    -0.82400
O168        O  0.22211319  0.94323664  0.89665867    -0.85000
C169        C  0.21582537  0.97792916  0.90529125     1.02600
O170        O  0.23122115  0.99338662  0.93445644    -0.77800
O171        O  0.29242041  0.01004765  0.98241414    -0.78000
C172        C  0.32074103  0.02103617  0.96246069     1.02600
Cr173      Cr  0.33616111  0.94377956  0.94751361     1.93700
Cr174      Cr  0.26767423  0.91047737  0.90595561     1.93200
Cr175      Cr  0.25689487  0.96472894  0.97652229     1.39100
O176        O  0.28645671  0.93980248  0.94334348    -1.23100
O177        O  0.45324934  0.01879083  0.25131790    -0.85300
O178        O  0.43288623  0.96512462  0.30725251    -0.82400
C179        C  0.39880805  0.95752680  0.29917736     0.98100
O180        O  0.39093814  0.93967841  0.26853983    -0.82400
O181        O  0.39876961  0.91020298  0.19484488    -0.85100
C182        C  0.39833091  0.93677816  0.17031954     1.02700
O183        O  0.42365138  0.96228272  0.17013794    -0.77800
O184        O  0.48098976  0.00900145  0.19534954    -0.78000
C185        C  0.46399727  0.03103918  0.21875483     1.02600
O186        O  0.52754727  0.98472842  0.24884724    -0.85300
O187        O  0.50314120  0.92708265  0.29690087    -0.82400
C188        C  0.48550833  0.89702935  0.30637038     0.98200
O189        O  0.45209346  0.89061493  0.29434082    -0.82400
O190        O  0.46176388  0.86529674  0.22026466    -0.85000
C191        C  0.47390002  0.86739310  0.18616207     1.02600
O192        O  0.47454461  0.89881358  0.16856299    -0.77800
O193        O  0.53011665  0.94376632  0.20111906    -0.78000
C194        C  0.54660409  0.96705173  0.22342495     1.02600
Cr195      Cr  0.47774578  0.97172550  0.27321360     1.93700
Cr196      Cr  0.42826968  0.90469211  0.24395433     1.93200
Cr197      Cr  0.47608697  0.95258136  0.18752360     1.39100
O198        O  0.46064191  0.94271455  0.23483037    -1.23100
O199        O  0.72783139  0.04555287  0.00303544    -0.85300
O200        O  0.78955898  0.06183754  0.05148700    -0.82400
C201        C  0.78720621  0.09661634  0.06224910     0.98100
O202        O  0.76238879  0.10710662  0.08636269    -0.82400
O203        O  0.69178604  0.11210950  0.11871049    -0.85100
C204        C  0.67178019  0.11989216  0.08927294     1.02700
O205        O  0.66526157  0.09435709  0.06428837    -0.77800
O206        O  0.67001726  0.02992997  0.01974220    -0.78000
C207        C  0.69357645  0.03901036  0.99406228     1.02600
O208        O  0.71562901  0.97398160  0.04263067    -0.85300
O209        O  0.77434326  0.99189821  0.09318336    -0.82400
C210        C  0.78804223  0.00720760  0.12322118     0.98200
O211        O  0.78094159  0.04171615  0.13175216    -0.82400
O212        O  0.70894936  0.03982216  0.15982377    -0.85000
C213        C  0.67357116  0.03552272  0.15910083     1.02600
O214        O  0.65498918  0.04835891  0.13110215    -0.77800
O215        O  0.67143153  0.98468987  0.08626791    -0.78000
C216        C  0.68657291  0.96292127  0.06139437     1.02600
Cr217      Cr  0.74981001  0.02024403  0.05020925     1.93700
Cr218      Cr  0.73476084  0.07310333  0.12138263     1.93200
Cr219      Cr  0.66903333  0.03980618  0.07599421     1.39100
O220        O  0.71831774  0.04439721  0.08231295    -1.23100
O221        O  0.46622756  0.74860322  0.99154595    -0.85300
O222        O  0.51403960  0.70861746  0.94280040    -0.82400
C223        C  0.54079643  0.70281786  0.91926244     0.98100
O224        O  0.57250436  0.71982545  0.92258143    -0.82400
O225        O  0.56076459  0.79593130  0.90280289    -0.85100
C226        C  0.54615114  0.82883156  0.90550709     1.02700
O227        O  0.53709988  0.84224662  0.93816755    -0.77800
O228        O  0.47450402  0.79994865  0.95671628    -0.78000
C229        C  0.45298068  0.77416747  0.96931917     1.02600
O230        O  0.52770203  0.74755446  0.04910299    -0.85300
O231        O  0.57049339  0.70123934  0.00164910    -0.82400
C232        C  0.60440787  0.71329979  0.00382767     0.98200
O233        O  0.61324152  0.74539128  0.99014499    -0.82400
O234        O  0.60529683  0.82077816  0.96911165    -0.85000
C235        C  0.59561847  0.83958509  0.99911967     1.02600
O236        O  0.56395756  0.83372949  0.01497636    -0.77800
O237        O  0.49726183  0.80043589  0.03659602    -0.78000
C238        C  0.51083381  0.77720764  0.06068187     1.02600
Cr239      Cr  0.52119324  0.72959978  0.99492084     1.93700
Cr240      Cr  0.58466132  0.77045723  0.94830115     1.93200
Cr241      Cr  0.51983164  0.81575057  0.98584800     1.39100
O242        O  0.54212913  0.77175786  0.97612134    -1.23100
O243        O  0.51233442  0.98121714  0.83228816    -0.85300
O244        O  0.56880999  0.02556612  0.86184948    -0.82400
C245        C  0.59730278  0.04744112  0.86141288     0.98100
O246        O  0.59881354  0.07486231  0.83767359    -0.82400
O247        O  0.60774716  0.04667389  0.76386276    -0.85100
C248        C  0.60018764  0.02907742  0.73304854     1.02700
O249        O  0.56635646  0.02395809  0.72293542    -0.77800
O250        O  0.54242436  0.97035596  0.77774137    -0.78000
C251        C  0.53003262  0.95858583  0.80996504     1.02600
O252        O  0.46453025  0.04712375  0.82416253    -0.85300
O253        O  0.52017167  0.09079891  0.86013848    -0.82400
C254        C  0.52489820  0.12227524  0.84329479     0.98200
O255        O  0.53902125  0.12386946  0.81001791    -0.82400
O256        O  0.54959517  0.09837432  0.73611851    -0.85000
C257        C  0.51684993  0.09313547  0.72156822     1.02600
O258        O  0.49720684  0.06429811  0.73088815    -0.77800
O259        O  0.46972190  0.00636067  0.77651733    -0.78000
C260        C  0.44939692  0.02353884  0.80106439     1.02600
Cr261      Cr  0.51788573  0.03721065  0.84094936     1.93700
Cr262      Cr  0.57106182  0.08292216  0.78743304     1.93200
Cr263      Cr  0.52034169  0.01848420  0.75506318     1.39100
O264        O  0.53649761  0.04652670  0.79464392    -1.23100
O265        O  0.03778874  0.49383129  0.18266145    -0.85300
O266        O  0.10028793  0.44768147  0.17795920    -0.82400
C267        C  0.12408613  0.42148025  0.18351070     0.98100
O268        O  0.11559760  0.39350822  0.20503963    -0.82400
O269        O  0.11244842  0.42944294  0.27717886    -0.85100
C270        C  0.10071203  0.45258420  0.30286790     1.02700
O271        O  0.06587786  0.46247223  0.30442408    -0.77800
O272        O  0.05039635  0.50940604  0.24257254    -0.78000
C273        C  0.04607593  0.51875656  0.20776833     1.02600
O274        O  0.99065170  0.42821874  0.18260504    -0.85300
O275        O  0.05161482  0.38172262  0.16864675    -0.82400
C276        C  0.03917869  0.35436202  0.18865911     0.98200
O277        O  0.04366809  0.35501758  0.22472813    -0.82400
O278        O  0.04818835  0.38626618  0.29768729    -0.85000
C279        C  0.01392674  0.39353827  0.30557322     1.02600
O280        O  0.99646280  0.41970605  0.28798034    -0.77800
O281        O  0.97928288  0.47067687  0.22791751    -0.78000
C282        C  0.96875880  0.45252907  0.19773900     1.02600
Cr283      Cr  0.04560401  0.43736915  0.18169637     1.93700
Cr284      Cr  0.07790568  0.39372708  0.24960655     1.93200
Cr285      Cr  0.02471923  0.46298494  0.26358229     1.39100
O286        O  0.04949200  0.43170444  0.23192637    -1.23100
O287        O  0.99535525  0.33153954  0.97155427    -0.85300
O288        O  0.92484284  0.35275037  0.94549314    -0.82400
C289        C  0.92446159  0.33944522  0.91133021     0.98100
O290        O  0.92144719  0.30379712  0.90549247    -0.82400
O291        O  0.92202083  0.22511063  0.92050389    -0.85100
C292        C  0.95655595  0.21679900  0.91647903     1.02700
O293        O  0.98062984  0.23041948  0.93955069    -0.77800
O294        O  0.01582587  0.27595056  0.99283963    -0.78000
C295        C  0.02217273  0.30905144  0.97967593     1.02600
O296        O  0.96573295  0.31578855  0.04587325    -0.85300
O297        O  0.89302976  0.32972909  0.01912027    -0.82400
C298        C  0.86383958  0.32896274  0.99813397     0.98200
O299        O  0.86542314  0.31301378  0.96531958    -0.82400
O300        O  0.87518910  0.23822963  0.98557062    -0.85000
C301        C  0.89087075  0.20881202  0.99920879     1.02600
O302        O  0.92664619  0.20431279  0.99708034    -0.77800
O303        O  0.96109614  0.25329786  0.04959161    -0.78000
C304        C  0.96789085  0.28530927  0.06508597     1.02600
Cr305      Cr  0.94401931  0.32866649  0.99440182     1.93700
Cr306      Cr  0.89920742  0.27083150  0.94663769     1.93200
Cr307      Cr  0.96841642  0.24382174  0.99340268     1.39100
O308        O  0.93745070  0.28098372  0.97850469    -1.23100
O309        O  0.23987499  0.46648979  0.04400033    -0.85300
O310        O  0.28319708  0.41723625  0.00104223    -0.82400
C311        C  0.29063755  0.39267703  0.97537227     0.98100
O312        O  0.27409914  0.39342476  0.94268956    -0.82400
O313        O  0.19516896  0.38135958  0.94843718    -0.85100
C314        C  0.16135913  0.38916897  0.95810441     1.02700
O315        O  0.15112789  0.42353145  0.96065543    -0.77800
O316        O  0.18621218  0.43735673  0.02957053    -0.78000
C317        C  0.21116570  0.44654197  0.05393336     1.02600
O318        O  0.25155372  0.52399886  0.98222851    -0.85300
O319        O  0.29775781  0.47354144  0.94399415    -0.82400
C320        C  0.28934815  0.47491676  0.90850004     0.98200
O321        O  0.25884025  0.46029836  0.89625044    -0.82400
O322        O  0.18126796  0.44679478  0.89761267    -0.85000
C323        C  0.16542792  0.47894440  0.90494708     1.02600
O324        O  0.17358322  0.49675017  0.93550665    -0.77800
O325        O  0.19642362  0.51509744  0.00871526    -0.78000
C326        C  0.22180131  0.53749062  0.99701695     1.02600
Cr327      Cr  0.26510758  0.46917647  0.99098420     1.93700
Cr328      Cr  0.22740713  0.42245382  0.92421717     1.93200
Cr329      Cr  0.18003163  0.46711383  0.98241338     1.39100
O330        O  0.22468008  0.45228948  0.96590531    -1.23100
O331        O  0.98383091  0.71644245  0.04046107    -0.85300
O332        O  0.01745997  0.76228979  0.09474099    -0.82400
C333        C  0.04077937  0.77438305  0.11937584     0.98100
O334        O  0.07580089  0.76761373  0.11525538    -0.82400
O335        O  0.07779798  0.68964528  0.13018215    -0.85100
C336        C  0.07267570  0.65437905  0.12404753     1.02700
O337        O  0.07441566  0.64098597  0.09004043    -0.77800
O338        O  0.00414358  0.66175281  0.06390515    -0.78000
C339        C  0.97738263  0.68333845  0.05367345     1.02600
O340        O  0.03942221  0.73911987  0.98483348    -0.85300
O341        O  0.07303007  0.78901926  0.03815190    -0.82400
C342        C  0.10883722  0.78413092  0.03608033     0.98200
O343        O  0.12430891  0.75491929  0.05031234    -0.82400
O344        O  0.13458448  0.67980517  0.07030094    -0.85000
C345        C  0.13538584  0.66367801  0.03744519     1.02600
O346        O  0.10602619  0.66387870  0.01675324    -0.77800
O347        O  0.03381993  0.67682302  0.98975710    -0.78000
C348        C  0.03232184  0.70683791  0.96985843     1.02600
Cr349      Cr  0.03111138  0.74910195  0.04106002     1.93700
Cr350      Cr  0.10014424  0.72231785  0.08907716     1.93200
Cr351      Cr  0.05538188  0.66456596  0.04124835     1.39100
O352        O  0.06198973  0.71216702  0.05685276    -1.23100
O353        O  0.94330589  0.48159076  0.78375214    -0.85300
O354        O  0.93166046  0.53372292  0.72427850    -0.82400
C355        C  0.89721106  0.54462100  0.72658381     0.98100
O356        O  0.88673793  0.56683490  0.75361722    -0.82400
O357        O  0.88534416  0.60246508  0.82547219    -0.85100
C358        C  0.87338337  0.57469985  0.84517572     1.02700
O359        O  0.89464167  0.54643246  0.85104989    -0.77800
O360        O  0.95200162  0.49433302  0.84527111    -0.78000
C361        C  0.94310539  0.47116549  0.81871297     1.02600
O362        O  0.01577339  0.51532793  0.80017720    -0.85300
O363        O  0.00326846  0.57125293  0.74385482    -0.82400
C364        C  0.98812710  0.60054803  0.72906486     0.98200
O365        O  0.95333135  0.60695413  0.73432915    -0.82400
O366        O  0.95934959  0.63556746  0.80858469    -0.85000
C367        C  0.96359971  0.63464088  0.84474332     1.02600
O368        O  0.95034898  0.60684465  0.86374202    -0.77800
O369        O  0.00622994  0.55437187  0.84907659    -0.78000
C370        C  0.02700523  0.53061647  0.83143275     1.02600
Cr371      Cr  0.97180960  0.52805431  0.76529633     1.93700
Cr372      Cr  0.92315094  0.59991157  0.78189316     1.93200
Cr373      Cr  0.95050762  0.55120718  0.84845564     1.39100
O374        O  0.94856604  0.55934131  0.79843758    -1.23100
O375        O  0.80905743  0.55475055  0.99089550    -0.85300
O376        O  0.84896139  0.56410803  0.05760331    -0.82400
C377        C  0.83958806  0.59825367  0.06433956     0.98100
O378        O  0.80661422  0.60565526  0.07684615    -0.82400
O379        O  0.72819224  0.59543257  0.08605978    -0.85100
C380        C  0.71262571  0.60102187  0.05353695     1.02700
O381        O  0.71741391  0.57804673  0.02579014    -0.77800
O382        O  0.75417336  0.52807816  0.97790498    -0.78000
C383        C  0.78252953  0.54804958  0.96745445     1.02600
O384        O  0.79754049  0.47628202  0.00841297    -0.85300
O385        O  0.82932154  0.48964295  0.08044931    -0.82400
C386        C  0.83639071  0.50499141  0.11280586     0.98200
O387        O  0.82077992  0.53674025  0.12197480    -0.82400
O388        O  0.74321551  0.52499647  0.12621074    -0.85000
C389        C  0.71080790  0.51425724  0.11491595     1.02600
O390        O  0.70083572  0.51912258  0.08021709    -0.77800
O391        O  0.74321691  0.46852447  0.03735594    -0.78000
C392        C  0.77223041  0.45449512  0.02146075     1.02600
Cr393      Cr  0.81796348  0.52216106  0.03573300     1.93700
Cr394      Cr  0.77457162  0.56381511  0.09961748     1.93200
Cr395      Cr  0.73197273  0.52417532  0.03202483     1.39100
O396        O  0.77455927  0.53691328  0.05606151    -1.23100
O397        O  0.54157802  0.52151200  0.26877172    -0.85300
O398        O  0.56515541  0.46514767  0.21630523    -0.82400
C399        C  0.59958998  0.46063316  0.22575941     0.98100
O400        O  0.60772277  0.44499711  0.25729487    -0.82400
O401        O  0.60099083  0.41885271  0.33184741    -0.85100
C402        C  0.60235891  0.44833378  0.35334558     1.02700
O403        O  0.57561192  0.47227083  0.35254395    -0.77800
O404        O  0.51566651  0.51414311  0.32593224    -0.78000
C405        C  0.53094084  0.53533297  0.30088067     1.02600
O406        O  0.46849572  0.48448073  0.27484781    -0.85300
O407        O  0.49561413  0.42407167  0.23009802    -0.82400
C408        C  0.51497809  0.39470321  0.22153745     0.98200
O409        O  0.54914925  0.39212976  0.23264666    -0.82400
O410        O  0.53906450  0.37013687  0.30770125    -0.85000
C411        C  0.52957438  0.37362076  0.34259053     1.02600
O412        O  0.52804190  0.40626058  0.35849165    -0.77800
O413        O  0.46944002  0.44688218  0.32484565    -0.78000
C414        C  0.45113659  0.46823420  0.30231212     1.02600
Cr415      Cr  0.51919607  0.47183934  0.25027096     1.93700
Cr416      Cr  0.57169427  0.40948350  0.28276830     1.93200
Cr417      Cr  0.52321436  0.45882808  0.33696483     1.39100
O418        O  0.53806768  0.44661660  0.29007001    -1.23100
O419        O  0.47122193  0.68966500  0.48383407    -0.85300
O420        O  0.51519505  0.66805141  0.42047946    -0.82400
C421        C  0.54261794  0.66490459  0.39699738     0.98100
O422        O  0.57445463  0.68015280  0.40518894    -0.82400
O423        O  0.56133818  0.75800716  0.40565591    -0.85100
C424        C  0.54465505  0.78872717  0.41512086     1.02700
O425        O  0.53489955  0.79527817  0.44968342    -0.77800
O426        O  0.47281534  0.74833514  0.46312110    -0.78000
C427        C  0.45472415  0.71764632  0.46851315     1.02600
O428        O  0.53478820  0.67601939  0.53254416    -0.85300
O429        O  0.57328037  0.64475986  0.47051664    -0.82400
C430        C  0.60528415  0.65476695  0.48286682     0.98200
O431        O  0.61586338  0.68895123  0.47823117    -0.82400
O432        O  0.60779412  0.76732987  0.47330966    -0.85000
C433        C  0.59926873  0.78067676  0.50627277     1.02600
O434        O  0.56734127  0.77395962  0.52149735    -0.77800
O435        O  0.50427010  0.73049532  0.53962163    -0.78000
C436        C  0.51824277  0.70023808  0.55397751     1.02600
Cr437      Cr  0.52497690  0.67309852  0.47646377     1.93700
Cr438      Cr  0.58682976  0.72337500  0.44263384     1.93200
Cr439      Cr  0.52149304  0.75891875  0.49180448     1.39100
O440        O  0.54457480  0.71888596  0.47026826    -1.23100
O441        O  0.27247073  0.54965575  0.53054473    -0.85300
O442        O  0.21304213  0.56692546  0.48106776    -0.82400
C443        C  0.21752134  0.60217189  0.47350739     0.98100
O444        O  0.24329855  0.61304560  0.45065873    -0.82400
O445        O  0.31238639  0.61480874  0.41335162    -0.85100
C446        C  0.33300102  0.62398178  0.44191834     1.02700
O447        O  0.33842116  0.60013760  0.46832091    -0.77800
O448        O  0.33205730  0.53858882  0.51531310    -0.78000
C449        C  0.30711114  0.54726255  0.53989432     1.02600
O450        O  0.28511363  0.47848552  0.49151532    -0.85300
O451        O  0.22784919  0.49685132  0.43802578    -0.82400
C452        C  0.21108095  0.51476026  0.41141801     0.98200
O453        O  0.21935156  0.54940076  0.40536869    -0.82400
O454        O  0.29156595  0.54266247  0.37449412    -0.85000
C455        C  0.32684759  0.53632518  0.37515036     1.02600
O456        O  0.34658957  0.54895763  0.40283147    -0.77800
O457        O  0.33163044  0.48893770  0.45075127    -0.78000
C458        C  0.31534109  0.46757045  0.47478932     1.02600
Cr459      Cr  0.25185346  0.52469138  0.48266111     1.93700
Cr460      Cr  0.26793033  0.57782152  0.41361300     1.93200
Cr461      Cr  0.33356057  0.54458635  0.45867621     1.39100
O462        O  0.28429401  0.54888290  0.45198048    -1.23100
O463        O  0.47892947  0.47520487  0.70006862    -0.85300
O464        O  0.42057779  0.52189924  0.67515264    -0.82400
C465        C  0.39670592  0.54883281  0.67558216     0.98100
O466        O  0.40130806  0.57751952  0.69748521    -0.82400
O467        O  0.39422363  0.55159671  0.77229044    -0.85100
C468        C  0.40229764  0.53465242  0.80323843     1.02700
O469        O  0.43644841  0.52686720  0.81114133    -0.77800
O470        O  0.45398326  0.46956565  0.75766293    -0.78000
C471        C  0.46044031  0.45586843  0.72435156     1.02600
O472        O  0.52925370  0.53948375  0.69986513    -0.85300
O473        O  0.47369485  0.58392093  0.66773934    -0.82400
C474        C  0.47679585  0.61616149  0.68417742     0.98200
O475        O  0.46715178  0.62051649  0.71904671    -0.82400
O476        O  0.45682495  0.59923177  0.79475914    -0.85000
C477        C  0.49050631  0.59372950  0.80601716     1.02600
O478        O  0.50785584  0.56320012  0.79689222    -0.77800
O479        O  0.52942168  0.50202811  0.75007072    -0.78000
C480        C  0.54701179  0.51806709  0.72273867     1.02600
Cr481      Cr  0.47464755  0.53109188  0.68935313     1.93700
Cr482      Cr  0.43213054  0.58404029  0.74538777     1.93200
Cr483      Cr  0.48060927  0.51737796  0.77608566     1.39100
O484        O  0.46243023  0.54430957  0.73693828    -1.23100
O485        O  0.53214042  0.25972368  0.54586124    -0.85300
O486        O  0.48648307  0.20942524  0.58272775    -0.82400
C487        C  0.46220449  0.20226964  0.60836324     0.98100
O488        O  0.42968194  0.21823293  0.60807253    -0.82400
O489        O  0.43171793  0.29516222  0.62770675    -0.85100
C490        C  0.43733019  0.33058401  0.62504870     1.02700
O491        O  0.44541421  0.34444857  0.59270248    -0.77800
O492        O  0.51457282  0.30872937  0.58207097    -0.78000
C493        C  0.54005979  0.28599396  0.57057969     1.02600
O494        O  0.47750066  0.25704918  0.48032882    -0.85300
O495        O  0.43473958  0.20286340  0.51913109    -0.82400
C496        C  0.39937202  0.20990084  0.52086256     0.98200
O497        O  0.38708403  0.23834526  0.53953164    -0.82400
O498        O  0.38667831  0.31449145  0.55827317    -0.85000
C499        C  0.39635108  0.33410597  0.52876229     1.02600
O500        O  0.42909412  0.33046476  0.51438178    -0.77800
O501        O  0.50333535  0.30952804  0.50118540    -0.78000
C502        C  0.49569358  0.28725056  0.47360962     1.02600
Cr503      Cr  0.48057793  0.23500484  0.53337762     1.93700
Cr504      Cr  0.41203758  0.26679548  0.58136189     1.93200
Cr505      Cr  0.47178875  0.31968100  0.54812070     1.39100
O506        O  0.45450322  0.27311740  0.55451239    -1.23100
O507        O  0.67616110  0.46145152  0.50724166    -0.85300
O508        O  0.66539434  0.40025507  0.55495962    -0.82400
C509        C  0.66923424  0.37739062  0.58254317     0.98100
O510        O  0.69062951  0.38614051  0.61070966    -0.82400
O511        O  0.76196001  0.38498406  0.57720894    -0.85100
C512        C  0.78887710  0.39430970  0.55502486     1.02700
O513        O  0.79298666  0.42894595  0.54461292    -0.77800
O514        O  0.73491453  0.44662796  0.49243812    -0.78000
C515        C  0.70103511  0.45319465  0.48233393     1.02600
O516        O  0.67719908  0.51086144  0.57194745    -0.85300
O517        O  0.65716351  0.45234055  0.61892086    -0.82400
C518        C  0.67603059  0.46404311  0.64754120     0.98200
O519        O  0.71137250  0.45833927  0.64877883    -0.82400
O520        O  0.78440311  0.45016385  0.62094120    -0.85000
C521        C  0.79231422  0.48449765  0.61337281     1.02600
O522        O  0.77775207  0.50083385  0.58467007    -0.77800
O523        O  0.72300117  0.51918499  0.52998275    -0.78000
C524        C  0.69355795  0.53141814  0.54731564     1.02600
Cr525      Cr  0.67260708  0.45557788  0.56375053     1.93700
Cr526      Cr  0.73598622  0.42191271  0.61147849     1.93200
Cr527      Cr  0.75498053  0.47206249  0.54056247     1.39100
O528        O  0.72144204  0.44952487  0.57142716    -1.23100
C529        C  0.60785902  0.29302300  0.55262814    -0.12200
C530        C  0.57976191  0.29552557  0.58124204     0.04800
C531        C  0.58738266  0.31740259  0.61485790    -0.07500
C532        C  0.61951015  0.34098724  0.61629223    -0.08300
C533        C  0.64393721  0.34371663  0.58444764    -0.02800
C534        C  0.63919904  0.31795885  0.55309882     0.04000
N535        N  0.66434829  0.31820802  0.52053359     0.66500
H536        H  0.60304085  0.27525017  0.52742267     0.15400
H537        H  0.62331542  0.35990109  0.64095115     0.15100
N538        N  0.56104893  0.31848516  0.64634995     0.74200
O539        O  0.67832586  0.28707520  0.50843028    -0.39300
O540        O  0.66551526  0.34712011  0.49900022    -0.39200
O541        O  0.56242255  0.29286719  0.67176805    -0.39900
O542        O  0.54153899  0.34823787  0.65248354    -0.40000
C543        C  0.41990181  0.42266570  0.67836051    -0.12200
C544        C  0.44417296  0.41927663  0.71010254     0.04800
C545        C  0.46002595  0.38299918  0.71828849    -0.07500
C546        C  0.45457338  0.35230422  0.69198515    -0.08300
C547        C  0.43330370  0.35737740  0.65812967    -0.02800
C548        C  0.41424854  0.39239459  0.65255808     0.04000
N549        N  0.39105984  0.39844521  0.61921570     0.66500
H550        H  0.40740367  0.45013650  0.67181010     0.15400
H551        H  0.46898205  0.32533524  0.69667450     0.15100
N552        N  0.48279746  0.37733677  0.75196322     0.74200
O553        O  0.36233088  0.37760080  0.61340310    -0.39300
O554        O  0.39719847  0.42666310  0.59753178    -0.39200
O555        O  0.46931279  0.38566145  0.78475122    -0.39900
O556        O  0.51276452  0.35755957  0.74982161    -0.40000
C557        C  0.60838625  0.53337625  0.69099795    -0.12200
C558        C  0.58737881  0.50871864  0.71457653     0.04800
C559        C  0.60331294  0.47295362  0.72446320    -0.07500
C560        C  0.63650060  0.46027359  0.70591042    -0.08300
C561        C  0.65499935  0.48332897  0.67886128    -0.02800
C562        C  0.64231081  0.52127689  0.67355235     0.04000
N563        N  0.66205590  0.54687746  0.64836851     0.66500
H564        H  0.59735073  0.56155051  0.68445659     0.15400
H565        H  0.64576197  0.43098226  0.70992821     0.15100
N566        N  0.58376086  0.44722514  0.74940536     0.74200
O567        O  0.64361665  0.56825830  0.62595073    -0.39300
O568        O  0.69715754  0.55264682  0.65302583    -0.39200
O569        O  0.56355419  0.42079968  0.73531776    -0.39900
O570        O  0.58655806  0.45097011  0.78554119    -0.40000
C571        C  0.37010839  0.58094146  0.61968451    -0.12200
C572        C  0.36721566  0.55075316  0.64564198     0.04800
C573        C  0.33894877  0.52261987  0.64002578    -0.07500
C574        C  0.31602584  0.52384281  0.60674689    -0.08300
C575        C  0.32057499  0.55319050  0.57964765    -0.02800
C576        C  0.34720669  0.58238739  0.58705587     0.04000
N577        N  0.35250871  0.61308709  0.56077813     0.66500
H578        H  0.39183621  0.60258746  0.62365491     0.15400
H579        H  0.29600119  0.50091008  0.60111849     0.15100
N580        N  0.33290474  0.49325276  0.66787964     0.74200
O581        O  0.33500750  0.64399673  0.56715934    -0.39300
O582        O  0.38173025  0.61332546  0.53958559    -0.39200
O583        O  0.32103858  0.50224164  0.70113770    -0.39900
O584        O  0.33206032  0.45863840  0.65724901    -0.40000
C585        C  0.31404383  0.40081381  0.50202205    -0.12200
C586        C  0.33457902  0.43182459  0.48663608     0.04800
C587        C  0.37462176  0.42992627  0.48583634    -0.07500
C588        C  0.39304669  0.39720292  0.49835508    -0.08300
C589        C  0.37300096  0.36604857  0.51373828    -0.02800
C590        C  0.33299757  0.36810309  0.51590287     0.04000
N591        N  0.31132428  0.33732716  0.53156608     0.66500
H592        H  0.28332321  0.40216104  0.50368615     0.15400
H593        H  0.42385739  0.39730212  0.49794380     0.15100
N594        N  0.39735307  0.46258356  0.47656429     0.74200
O595        O  0.30130824  0.33846785  0.56654328    -0.39300
O596        O  0.29650695  0.31294387  0.50915399    -0.39200
O597        O  0.40461125  0.48711059  0.50245219    -0.39900
O598        O  0.41531920  0.46351626  0.44505196    -0.40000
C599        C  0.66891662  0.62837733  0.50312381    -0.12200
C600        C  0.62902750  0.62534346  0.50189413     0.04800
C601        C  0.61152764  0.59274085  0.51831642    -0.07500
C602        C  0.63360827  0.56412780  0.53433678    -0.08300
C603        C  0.67333137  0.56610663  0.53430258    -0.02800
C604        C  0.69118374  0.59873184  0.51878142     0.04000
N605        N  0.73157311  0.60249352  0.51943080     0.66500
H606        H  0.68284560  0.65323753  0.49106977     0.15400
H607        H  0.61917113  0.53914110  0.54557658     0.15100
N608        N  0.57115169  0.58758385  0.51861945     0.74200
O609        O  0.75065398  0.59509976  0.48941653    -0.39300
O610        O  0.74735777  0.61900140  0.54767320    -0.39200
O611        O  0.55562146  0.56939846  0.49126298    -0.39900
O612        O  0.55297431  0.59257408  0.54968153    -0.40000
C613        C  0.40635424  0.69963726  0.41969083    -0.12200
C614        C  0.41442974  0.71222707  0.45743453     0.04800
C615        C  0.38760535  0.70480122  0.48658432    -0.07500
C616        C  0.35779048  0.67918835  0.47953027    -0.08300
C617        C  0.35405976  0.66077662  0.44373972    -0.02800
C618        C  0.37622419  0.67384021  0.41262182     0.04000
N619        N  0.37144771  0.65765831  0.37495656     0.66500
H620        H  0.42612102  0.70619116  0.39674209     0.15400
H621        H  0.33909369  0.67148658  0.50287258     0.15100
N622        N  0.39277267  0.71970447  0.52466854     0.74200
O623        O  0.35393874  0.67627083  0.34951666    -0.39300
O624        O  0.37931993  0.62288650  0.36894742    -0.39200
O625        O  0.37869672  0.75183513  0.53344271    -0.39900
O626        O  0.40355564  0.69765923  0.55109812    -0.40000
C627        C  0.47601583  0.69547635  0.61163212    -0.12200
C628        C  0.51207594  0.69045661  0.59507699     0.04800
C629        C  0.53954381  0.66916993  0.61524094    -0.07500
C630        C  0.52833322  0.64690630  0.64685459    -0.08300
C631        C  0.49082607  0.64835035  0.66072197    -0.02800
C632        C  0.46531417  0.67494494  0.64463960     0.04000
N633        N  0.42776696  0.67944211  0.65993528     0.66500
H634        H  0.45545847  0.71372387  0.59773686     0.15400
H635        H  0.54858579  0.62761302  0.65996410     0.15100
N636        N  0.57876290  0.67069501  0.60403158     0.74200
O637        O  0.42338595  0.69367024  0.69323644    -0.39300
O638        O  0.39934092  0.67589440  0.63805743    -0.39200
O639        O  0.59494884  0.70276774  0.60069665    -0.39900
O640        O  0.59834529  0.64051075  0.60187020    -0.40000
C641        C  0.66036315  0.42304856  0.38660422    -0.12200
C642        C  0.63431234  0.45333669  0.38126080     0.04800
C643        C  0.63844600  0.48676522  0.40439502    -0.07500
C644        C  0.66603896  0.48782614  0.43327986    -0.08300
C645        C  0.68847439  0.45580060  0.44172643    -0.02800
C646        C  0.68733803  0.42400849  0.41659587     0.04000
N647        N  0.71208047  0.39204086  0.42205099     0.66500
H648        H  0.65874578  0.39765146  0.36854076     0.15400
H649        H  0.66679868  0.51254617  0.45244558     0.15100
N650        N  0.61300084  0.51868293  0.40188806     0.74200
O651        O  0.69842602  0.35873092  0.42428505    -0.39300
O652        O  0.74730995  0.39613201  0.41656323    -0.39200
O653        O  0.57987271  0.51553716  0.41555677    -0.39900
O654        O  0.62666796  0.55179006  0.39765851    -0.40000
C655        C  0.55240657  0.33602644  0.39651791    -0.12200
C656        C  0.52515959  0.34011306  0.36762351     0.04800
C657        C  0.49116316  0.31888707  0.36982900    -0.07500
C658        C  0.48285176  0.29812714  0.40353011    -0.08300
C659        C  0.50856753  0.29793813  0.43450233    -0.02800
C660        C  0.54456354  0.31503682  0.42958908     0.04000
N661        N  0.57285850  0.31318871  0.45894356     0.66500
H662        H  0.57894365  0.35175302  0.39480747     0.15400
H663        H  0.45529582  0.28461703  0.40657170     0.15100
N664        N  0.46393874  0.32022159  0.33940596     0.74200
O665        O  0.59923046  0.28894382  0.45544513    -0.39300
O666        O  0.57726961  0.34143120  0.48142346    -0.39200
O667        O  0.46786727  0.29831026  0.31055077    -0.39900
O668        O  0.43241771  0.33640052  0.34517461    -0.40000
C669        C  0.50089102  0.59339533  0.32589545    -0.12200
C670        C  0.53369402  0.57640397  0.31076112     0.04800
C671        C  0.56889622  0.59460926  0.31677437    -0.07500
C672        C  0.57136572  0.62564702  0.34292798    -0.08300
C673        C  0.53875422  0.63945053  0.36232106    -0.02800
C674        C  0.50308305  0.62464203  0.35109253     0.04000
N675        N  0.46859752  0.63977704  0.36626153     0.66500
H676        H  0.47341512  0.58021320  0.32078386     0.15400
H677        H  0.59910256  0.63729851  0.34973942     0.15100
N678        N  0.60252486  0.58034197  0.29861351     0.74200
O679        O  0.44851312  0.66066513  0.34491190    -0.39300
O680        O  0.45407909  0.62476973  0.39585443    -0.39200
O681        O  0.61150002  0.59206358  0.26546855    -0.39900
O682        O  0.62612630  0.56120773  0.31781091    -0.40000
C683        C  0.35871958  0.47634100  0.35748865    -0.12200
C684        C  0.34629195  0.51250433  0.34592421     0.04800
C685        C  0.36209157  0.52870041  0.31261242    -0.07500
C686        C  0.39509100  0.51248917  0.29622999    -0.08300
C687        C  0.41098373  0.47871460  0.31149584    -0.02800
C688        C  0.39000059  0.45882344  0.33977113     0.04000
N689        N  0.39944589  0.42058770  0.35028883     0.66500
H690        H  0.34535440  0.46242252  0.38181277     0.15400
H691        H  0.40909239  0.52723253  0.27277533     0.15100
N692        N  0.34457375  0.56115399  0.29523850     0.74200
O693        O  0.41994152  0.41476408  0.37948697    -0.39300
O694        O  0.37958736  0.39354326  0.33686864    -0.39200
O695        O  0.35983372  0.59373565  0.29747574    -0.39900
O696        O  0.31416435  0.55689836  0.27643424    -0.40000
C697        C  0.69029683  0.50225303  0.18281997    -0.12200
C698        C  0.68353900  0.49760412  0.14307041     0.04800
C699        C  0.65004812  0.47849721  0.13121264    -0.07500
C700        C  0.62348004  0.46655687  0.15873435    -0.08300
C701        C  0.62988857  0.47196614  0.19836560    -0.02800
C702        C  0.66417217  0.48929129  0.21044081     0.04000
N703        N  0.67210761  0.49593455  0.25039951     0.66500
H704        H  0.71582368  0.51661551  0.19269789     0.15400
H705        H  0.59771646  0.45250717  0.14898747     0.15100
N706        N  0.64294264  0.46996700  0.09146367     0.74200
O707        O  0.68300599  0.46845826  0.27104122    -0.39300
O708        O  0.67731747  0.52976901  0.26223737    -0.39200
O709        O  0.65507011  0.43898539  0.07708534    -0.39900
O710        O  0.61906893  0.48955751  0.07302899    -0.40000
C711        C  0.88329042  0.51093024  0.66416051    -0.12200
C712        C  0.86970474  0.53185365  0.69632977     0.04800
C713        C  0.83023877  0.53981068  0.69864684    -0.07500
C714        C  0.80560175  0.52621034  0.66983611    -0.08300
C715        C  0.81938291  0.50467164  0.63857870    -0.02800
C716        C  0.85851588  0.49739063  0.63554616     0.04000
N717        N  0.87327766  0.47547727  0.60387766     0.66500
H718        H  0.91330678  0.50462751  0.66124007     0.15400
H719        H  0.77530633  0.53106162  0.67279765     0.15100
N720        N  0.81432280  0.56003651  0.73083866     0.74200
O721        O  0.87589405  0.49035115  0.57090952    -0.39300
O722        O  0.87981953  0.44022472  0.60787061    -0.39200
O723        O  0.80428947  0.59447958  0.72713041    -0.39900
O724        O  0.80468666  0.54191256  0.76066149    -0.40000
C725        C  0.81327915  0.54378515  0.86502786    -0.12200
C726        C  0.83651668  0.57632825  0.86530067     0.04800
C727        C  0.82927190  0.60557104  0.89230319    -0.07500
C728        C  0.80573368  0.59783974  0.92386237    -0.08300
C729        C  0.78769932  0.56206593  0.92753034    -0.02800
C730        C  0.78738138  0.53688669  0.89522570     0.04000
N731        N  0.76292081  0.50383287  0.89325829     0.66500
H732        H  0.81703295  0.52277592  0.84224345     0.15400
H733        H  0.80465336  0.61831273  0.94752965     0.15100
N734        N  0.84938655  0.64109692  0.89068864     0.74200
O735        O  0.73125849  0.50409958  0.91041715    -0.39300
O736        O  0.76891383  0.47812875  0.86813598    -0.39200
O737        O  0.84313261  0.66404276  0.86347241    -0.39900
O738        O  0.87285574  0.64994613  0.91674703    -0.40000
C739        C  0.91120480  0.67842958  0.08017132    -0.12200
C740        C  0.93871889  0.66738781  0.05282384     0.04800
C741        C  0.93004161  0.63851319  0.02573490    -0.07500
C742        C  0.89530547  0.61960205  0.02777836    -0.08300
C743        C  0.86921061  0.62753711  0.05753039    -0.02800
C744        C  0.87646047  0.65850036  0.08285640     0.04000
N745        N  0.85049489  0.66797840  0.11316613     0.66500
H746        H  0.91762324  0.70083755  0.10090934     0.15400
H747        H  0.88993655  0.59641422  0.00750812     0.15100
N748        N  0.95721898  0.62632816  0.99740477     0.74200
O749        O  0.85250320  0.65074239  0.14495807    -0.39300
O750        O  0.83009362  0.69752824  0.11047399    -0.39200
O751        O  0.98180504  0.60165543  0.00631882    -0.39900
O752        O  0.95116032  0.63307901  0.96224204    -0.40000
C753        C  0.04053314  0.67984201  0.90423486    -0.12200
C754        C  0.01895615  0.70250715  0.92964118     0.04800
C755        C  0.98060476  0.70999836  0.92052312    -0.07500
C756        C  0.96331015  0.69061741  0.88946305    -0.08300
C757        C  0.98415245  0.66515197  0.86614178    -0.02800
C758        C  0.02374569  0.66208348  0.87197540     0.04000
N759        N  0.04673947  0.63901258  0.84684742     0.66500
H760        H  0.07006030  0.67401061  0.91083345     0.15400
H761        H  0.93291469  0.69329223  0.88534885     0.15100
N762        N  0.95777638  0.73363119  0.94517141     0.74200
O763        O  0.06882058  0.61427962  0.86079134    -0.39300
O764        O  0.05061484  0.64858505  0.81201574    -0.39200
O765        O  0.95406095  0.76867438  0.93752028    -0.39900
O766        O  0.93568621  0.71839126  0.96931160    -0.40000
C767        C  0.10395935  0.51192989  0.90520296    -0.12200
C768        C  0.13201231  0.49307248  0.88331090     0.04800
C769        C  0.12559472  0.48685414  0.84362671    -0.07500
C770        C  0.09163694  0.49998337  0.82674376    -0.08300
C771        C  0.06355556  0.51871409  0.84905880    -0.02800
C772        C  0.07005690  0.52414581  0.88896817     0.04000
N773        N  0.04158360  0.53954048  0.91428965     0.66500
H774        H  0.10744622  0.51582500  0.93607418     0.15400
H775        H  0.08715405  0.49529031  0.79614451     0.15100
N776        N  0.15340033  0.46827157  0.81998710     0.74200
O777        O  0.01361135  0.51898699  0.92372250    -0.39300
O778        O  0.04830319  0.56983805  0.93315512    -0.39200
O779        O  0.14984615  0.43311371  0.81221468    -0.39900
O780        O  0.17596855  0.48828794  0.80028254    -0.40000
C781        C  0.35288783  0.50305338  0.89489989    -0.12200
C782        C  0.31663893  0.49295401  0.88127135     0.04800
C783        C  0.30772818  0.50029672  0.84218850    -0.07500
C784        C  0.33553002  0.51509966  0.81736475    -0.08300
C785        C  0.37216805  0.52351307  0.83083281    -0.02800
C786        C  0.38025731  0.51868586  0.87040365     0.04000
N787        N  0.41576644  0.53065702  0.88650133     0.66500
H788        H  0.36025238  0.49893578  0.92493156     0.15400
H789        H  0.32857408  0.51933500  0.78724460     0.15100
N790        N  0.27043665  0.49384258  0.82736547     0.74200
O791        O  0.42168113  0.56575221  0.89299266    -0.39300
O792        O  0.43859578  0.50609397  0.89948719    -0.39200
O793        O  0.24652971  0.52074920  0.82818519    -0.39900
O794        O  0.26374632  0.46424678  0.80740488    -0.40000
C795        C  0.17065065  0.62903169  0.98575085    -0.12200
C796        C  0.16859519  0.64056556  0.02464214     0.04800
C797        C  0.19441549  0.62440364  0.05116354    -0.07500
C798        C  0.21725908  0.59350019  0.03965701    -0.08300
C799        C  0.21527465  0.57874947  0.00204165    -0.02800
C800        C  0.19393659  0.59850127  0.97419217     0.04000
N801        N  0.19299007  0.58568394  0.93485057     0.66500
H802        H  0.15219191  0.64209372  0.96459684     0.15400
H803        H  0.23356245  0.57843350  0.06126732     0.15100
N804        N  0.19431164  0.63542241  0.09092344     0.74200
O805        O  0.16151735  0.58092524  0.91807435    -0.39300
O806        O  0.22318110  0.58570642  0.91512716    -0.39200
O807        O  0.17670763  0.61517831  0.11506962    -0.39900
O808        O  0.21744133  0.66049360  0.10270009    -0.40000
C809        C  0.89630567  0.39409002  0.87667846    -0.12200
C810        C  0.92540482  0.36689272  0.87897573     0.04800
C811        C  0.95757727  0.37079129  0.85497888    -0.07500
C812        C  0.96140524  0.40334787  0.83142047    -0.08300
C813        C  0.93303664  0.43174326  0.83077085    -0.02800
C814        C  0.89964363  0.42596630  0.85258872     0.04000
N815        N  0.86996716  0.45383354  0.85270783     0.66500
H816        H  0.87147725  0.39145471  0.89506889     0.15400
H817        H  0.98780089  0.40786630  0.81594235     0.15100
N818        N  0.98821345  0.34407810  0.85735377     0.74200
O819        O  0.84861491  0.45657280  0.82365339    -0.39300
O820        O  0.86081936  0.47037805  0.88387591    -0.39200
O821        O  0.98602144  0.31229424  0.83995401    -0.39900
O822        O  0.01557373  0.35051340  0.87997720    -0.40000
C823        C  0.80585086  0.36363108  0.97860789    -0.12200
C824        C  0.82959257  0.35143866  0.00865341     0.04800
C825        C  0.82369108  0.36657095  0.04608809    -0.07500
C826        C  0.79875070  0.39745892  0.05135912    -0.08300
C827        C  0.77958939  0.41328559  0.01984679    -0.02800
C828        C  0.78124755  0.39457768  0.98385115     0.04000
N829        N  0.76228980  0.40996161  0.95106693     0.66500
H830        H  0.80907703  0.35186165  0.94975099     0.15400
H831        H  0.79757693  0.41165686  0.07927916     0.15100
N832        N  0.84456171  0.35269182  0.07840324     0.74200
O833        O  0.78177312  0.42304257  0.92357802    -0.39300
O834        O  0.72755620  0.40264875  0.94585603    -0.39200
O835        O  0.86965896  0.37349415  0.09385682    -0.39900
O836        O  0.83322130  0.32309704  0.09559415    -0.40000
C837        C  0.08614563  0.31173051  0.94773784    -0.12200
C838        C  0.06137058  0.32352121  0.97743713     0.04800
C839        C  0.07294956  0.35230539  0.00337618    -0.07500
C840        C  0.10832954  0.36952499  0.99890147    -0.08300
C841        C  0.13199185  0.36042239  0.96743549    -0.02800
C842        C  0.12118088  0.33055782  0.94207692     0.04000
N843        N  0.14296710  0.32222655  0.90821753     0.66500
H844        H  0.07705037  0.28999686  0.92726665     0.15400
H845        H  0.11595468  0.39269576  0.01842315     0.15100
N846        N  0.04757664  0.36684936  0.03227980     0.74200
O847        O  0.16259961  0.29204336  0.90658777    -0.39300
O848        O  0.13696137  0.34088017  0.87779169    -0.39200
O849        O  0.04720948  0.35222845  0.06542044    -0.39900
O850        O  0.03026541  0.39793359  0.02666698    -0.40000
C851        C  0.15196285  0.44297033  0.35227451    -0.12200
C852        C  0.12774185  0.46784841  0.33212021     0.04800
C853        C  0.12946435  0.50728657  0.34044606    -0.07500
C854        C  0.15594162  0.52136341  0.36708137    -0.08300
C855        C  0.18089336  0.49688123  0.38684302    -0.02800
C856        C  0.17780547  0.45701981  0.38008926     0.04000
N857        N  0.20073956  0.43050729  0.40087090     0.66500
H858        H  0.15037927  0.41242348  0.34684205     0.15400
H859        H  0.15727962  0.55203650  0.37180507     0.15100
N860        N  0.10628203  0.53385654  0.32008496     0.74200
O861        O  0.19035456  0.41982167  0.43396725    -0.39300
O862        O  0.22745525  0.41311556  0.38387675    -0.39200
O863        O  0.07716091  0.54769934  0.33626976    -0.39900
O864        O  0.11925970  0.54946254  0.29012938    -0.40000
C865        C  0.17663853  0.45866284  0.15524019    -0.12200
C866        C  0.15961090  0.42274297  0.16081365     0.04800
C867        C  0.16964022  0.39214365  0.13610355    -0.07500
C868        C  0.19094212  0.39955152  0.10275522    -0.08300
C869        C  0.20346997  0.43678950  0.09448186    -0.02800
C870        C  0.19864662  0.46587185  0.12238482     0.04000
N871        N  0.21001587  0.50429856  0.11464996     0.66500
H872        H  0.16927458  0.48240632  0.17416545     0.15400
H873        H  0.19479797  0.37686877  0.08156832     0.15100
N874        N  0.15408445  0.35478308  0.14149735     0.74200
O875        O  0.18725569  0.52649910  0.09784160    -0.39300
O876        O  0.23905584  0.51790661  0.13105610    -0.39200
O877        O  0.12737384  0.34326065  0.12012854    -0.39900
O878        O  0.17134461  0.33120818  0.16257180    -0.40000
C879        C  0.08240845  0.58001811  0.20205216    -0.12200
C880        C  0.04919452  0.55885369  0.19503229     0.04800
C881        C  0.02120336  0.57410786  0.17053183    -0.07500
C882        C  0.02825934  0.60792783  0.15070865    -0.08300
C883        C  0.06266400  0.62758263  0.15512222    -0.02800
C884        C  0.08918548  0.61477470  0.18276947     0.04000
N885        N  0.12351616  0.63562467  0.19028091     0.66500
H886        H  0.10398595  0.56852200  0.22084933     0.15400
H887        H  0.00754657  0.61767681  0.12985323     0.15100
N888        N  0.98610901  0.55449821  0.16399621     0.74200
O889        O  0.12180622  0.67086573  0.19838874    -0.39300
O890        O  0.15428419  0.61789996  0.19570951    -0.39200
O891        O  0.95726659  0.56362725  0.18370466    -0.39900
O892        O  0.98197703  0.53453501  0.13378725    -0.40000
C893        C  0.96110939  0.30884443  0.13241748    -0.12200
C894        C  0.98231198  0.28827960  0.10496948     0.04800
C895        C  0.02100780  0.28080499  0.11234863    -0.07500
C896        C  0.03918069  0.29940016  0.14325964    -0.08300
C897        C  0.01869589  0.32309528  0.16862622    -0.02800
C898        C  0.97872651  0.32483604  0.16516801     0.04000
N899        N  0.95614496  0.34440348  0.19358533     0.66500
H900        H  0.93116327  0.31401394  0.12738716     0.15400
H901        H  0.06977181  0.29732968  0.14596532     0.15100
N902        N  0.04294893  0.25762539  0.08640231     0.74200
O903        O  0.92946378  0.36617086  0.18329640    -0.39300
O904        O  0.95809453  0.33424748  0.22840213    -0.39200
O905        O  0.07002454  0.27219333  0.06762932    -0.39900
O906        O  0.03949886  0.22169734  0.08735658    -0.40000
C907        C  0.90535300  0.48582978  0.19598366    -0.12200
C908        C  0.93249617  0.46230959  0.17764727     0.04800
C909        C  0.92600632  0.45119797  0.13870856    -0.07500
C910        C  0.89310557  0.46315187  0.11967070    -0.08300
C911        C  0.86675198  0.48792671  0.13737531    -0.02800
C912        C  0.87301514  0.49896235  0.17620150     0.04000
N913        N  0.84722259  0.52398982  0.19584301     0.66500
H914        H  0.90975039  0.49506909  0.22556006     0.15400
H915        H  0.88974532  0.45507895  0.08960321     0.15100
N916        N  0.95423714  0.43122739  0.11652592     0.74200
O917        O  0.81884285  0.51025447  0.21321759    -0.39300
O918        O  0.85591112  0.55871508  0.20087474    -0.39200
O919        O  0.94756192  0.39787394  0.10409070    -0.39900
O920        O  0.98234424  0.44940789  0.10332277    -0.40000
C921        C  0.46282694  0.12572657  0.68734960    -0.12200
C922        C  0.50224564  0.12083428  0.69271767     0.04800
C923        C  0.52745690  0.14346369  0.67088528    -0.07500
C924        C  0.51331217  0.16997824  0.64472811    -0.08300
C925        C  0.47405210  0.17488421  0.63887622    -0.02800
C926        C  0.44860201  0.15257203  0.66082050     0.04000
N927        N  0.40847319  0.15599190  0.65585266     0.66500
H928        H  0.44293229  0.10879899  0.70394866     0.15400
H929        H  0.53366835  0.18674208  0.62850948     0.15100
N930        N  0.56774545  0.13901230  0.67374940     0.74200
O931        O  0.39176847  0.13525504  0.63120165    -0.39300
O932        O  0.38915476  0.17489279  0.68008618    -0.39200
O933        O  0.58466602  0.11569968  0.65164757    -0.39900
O934        O  0.58684445  0.16275087  0.69332229    -0.40000
C935        C  0.50784886  0.68738659  0.85904337    -0.12200
C936        C  0.53390829  0.67629284  0.88709191     0.04800
C937        C  0.54867724  0.63884102  0.88647478    -0.07500
C938        C  0.53578329  0.61244639  0.85863491    -0.08300
C939        C  0.50809248  0.62301565  0.83152306    -0.02800
C940        C  0.49514684  0.66143134  0.83116229     0.04000
N941        N  0.46880606  0.67462884  0.80286416     0.66500
H942        H  0.49651210  0.71625994  0.85938298     0.15400
H943        H  0.54603688  0.58322341  0.85946214     0.15100
N944        N  0.57456117  0.62654245  0.91556168     0.74200
O945        O  0.43442696  0.67957303  0.81208290    -0.39300
O946        O  0.48119661  0.68873393  0.77187755    -0.39200
O947        O  0.56213327  0.60979672  0.94515262    -0.39900
O948        O  0.60985785  0.62749949  0.90917653    -0.40000
C949        C  0.57003202  0.86405826  0.84715847    -0.12200
C950        C  0.53977522  0.85352388  0.87146334     0.04800
C951        C  0.50498549  0.87302081  0.86814439    -0.07500
C952        C  0.50183745  0.90443266  0.84392239    -0.08300
C953        C  0.53320950  0.91835600  0.82327675    -0.02800
C954        C  0.56730702  0.89667958  0.82326429     0.04000
N955        N  0.60017350  0.90865295  0.80203288     0.66500
H956        H  0.59700384  0.84932711  0.84957925     0.15400
H957        H  0.47506564  0.91983438  0.84344696     0.15100
N958        N  0.47278953  0.86214720  0.89064651     0.74200
O959        O  0.61276779  0.94229238  0.80585880    -0.39300
O960        O  0.61996596  0.88406020  0.78422068    -0.39200
O961        O  0.46072846  0.88407487  0.91708593    -0.39900
O962        O  0.45231073  0.83482698  0.87905591    -0.40000
C963        C  0.69796926  0.66126963  0.01989577    -0.12200
C964        C  0.68736889  0.63399002  0.04727146     0.04800
C965        C  0.65045546  0.63511737  0.06301346    -0.07500
C966        C  0.62413150  0.66208144  0.04958993    -0.08300
C967        C  0.63418743  0.68852465  0.02091534    -0.02800
C968        C  0.67203004  0.68874683  0.00703121     0.04000
N969        N  0.68381303  0.71461899  0.97760544     0.66500
H970        H  0.72617142  0.66025617  0.00725412     0.15400
H971        H  0.59536282  0.66156420  0.06080714     0.15100
N972        N  0.63843472  0.60718162  0.09035000     0.74200
O973        O  0.70050162  0.74530207  0.98687032    -0.39300
O974        O  0.68367761  0.70380166  0.94277315    -0.39200
O975        O  0.63685341  0.61591098  0.12572017    -0.39900
O976        O  0.62339220  0.57644804  0.07864185    -0.40000
C977        C  0.84858387  0.11336191  0.02990110    -0.12200
C978        C  0.81426700  0.12542803  0.04698781     0.04800
C979        C  0.80657313  0.16513100  0.04954750    -0.07500
C980        C  0.83237702  0.19142532  0.03448951    -0.08300
C981        C  0.86641439  0.17942692  0.01712323    -0.02800
C982        C  0.87485205  0.13993927  0.01550627     0.04000
N983        N  0.90936741  0.12626101  0.99849372     0.66500
H984        H  0.85532562  0.08314142  0.02803172     0.15400
H985        H  0.82550851  0.22164644  0.03623325     0.15100
N986        N  0.77220379  0.17942758  0.06637163     0.74200
O987        O  0.93914541  0.12477064  0.01865091    -0.39300
O988        O  0.90843755  0.10916461  0.96630329    -0.39200
O989        O  0.77278077  0.19379247  0.09989934    -0.39900
O990        O  0.74307069  0.18345624  0.04563111    -0.40000
C991        C  0.65427135  0.07189260  0.89805825    -0.12200
C992        C  0.62819851  0.04203150  0.89051300     0.04800
C993        C  0.63066271  0.00846822  0.91308136    -0.07500
C994        C  0.65626546  0.00684527  0.94380356    -0.08300
C995        C  0.67914250  0.03825060  0.95391993    -0.02800
C996        C  0.67918803  0.07051442  0.92984517     0.04000
N997        N  0.70148974  0.10340794  0.93929782     0.66500
H998        H  0.65383596  0.09747824  0.88065500     0.15400
H999        H  0.65597794  0.98172161  0.96202317     0.15100
N1000       N  0.60607514  0.97637881  0.90688387     0.74200
O1001       O  0.73417015  0.10701532  0.92473252    -0.39300
O1002       O  0.68586535  0.13190006  0.95531690    -0.39200
O1003       O  0.61990151  0.94548834  0.89400878    -0.39900
O1004       O  0.57409228  0.97572484  0.92344160    -0.40000
C1005       C  0.65974927  0.86790658  0.01357721    -0.12200
C1006       C  0.61990462  0.87045197  0.01504953     0.04800
C1007       C  0.60294918  0.90244697  0.03336346    -0.07500
C1008       C  0.62564058  0.93008998  0.05104932    -0.08300
C1009       C  0.66543599  0.92824686  0.04912163    -0.02800
C1010       C  0.68259790  0.89670711  0.03019608     0.04000
N1011       N  0.72299733  0.89308392  0.02842243     0.66500
H1012       H  0.67314618  0.84340513  0.99983859     0.15400
H1013       H  0.61175501  0.95477809  0.06394456     0.15100
N1014       N  0.56273463  0.90879060  0.03180064     0.74200
O1015       O  0.74044709  0.87719593  0.05574204    -0.39300
O1016       O  0.74020549  0.89952407  0.99715472    -0.39200
O1017       O  0.54398234  0.91370859  0.06252974    -0.39900
O1018       O  0.54659112  0.91309321  0.99961584    -0.40000
C1019       C  0.46993196  0.78387945  0.11816963    -0.12200
C1020       C  0.50642016  0.78615582  0.10197937     0.04800
C1021       C  0.53448668  0.80822288  0.12073910    -0.07500
C1022       C  0.52404816  0.83216465  0.15158371    -0.08300
C1023       C  0.48643126  0.83326804  0.16479017    -0.02800
C1024       C  0.45977556  0.80716870  0.14966201     0.04000
N1025       N  0.42115840  0.80765493  0.16250609     0.66500
H1026       H  0.44824749  0.76687949  0.10397349     0.15400
H1027       H  0.54476956  0.85178009  0.16368806     0.15100
N1028       N  0.57278068  0.80899443  0.10665068     0.74200
O1029       O  0.39830866  0.83192947  0.14901636    -0.39300
O1030       O  0.40864105  0.78044411  0.18260401    -0.39200
O1031       O  0.58950905  0.84054654  0.10177798    -0.39900
O1032       O  0.59164426  0.77831817  0.10468847    -0.40000
C1033       C  0.52205732  0.88254334  0.36585965    -0.12200
C1034       C  0.50337560  0.86931830  0.33262880     0.04800
C1035       C  0.50140786  0.82954441  0.32527616    -0.07500
C1036       C  0.51748036  0.80382781  0.35132052    -0.08300
C1037       C  0.53447570  0.81693535  0.38546393    -0.02800
C1038       C  0.53710230  0.85671066  0.39253873     0.04000
N1039       N  0.55496175  0.87122912  0.42666515     0.66500
H1040       H  0.52397041  0.91300446  0.37171174     0.15400
H1041       H  0.51490957  0.77335424  0.34575581     0.15100
N1042       N  0.48314060  0.81476484  0.29150544     0.74200
O1043       O  0.59065888  0.87444661  0.42778877    -0.39300
O1044       O  0.53501496  0.88601195  0.45316795    -0.39200
O1045       O  0.50309985  0.80268980  0.26366865    -0.39900
O1046       O  0.44827536  0.80639390  0.29281362    -0.40000
C1047       C  0.64410959  0.97518964  0.17779522    -0.12200
C1048       C  0.65305062  0.01304183  0.18802318     0.04800
C1049       C  0.63181520  0.03151530  0.21703051    -0.07500
C1050       C  0.59890459  0.01401551  0.23121598    -0.08300
C1051       C  0.58668671  0.97833583  0.21670108    -0.02800
C1052       C  0.61108422  0.95770789  0.19172363     0.04000
N1053       N  0.60140729  0.92035269  0.17785285     0.66500
H1054       H  0.66074618  0.96043690  0.15595231     0.15400
H1055       H  0.58140873  0.02985540  0.25155520     0.15100
N1056       N  0.64187038  0.06904401  0.23033253     0.74200
O1057       O  0.58734513  0.91652628  0.14457890    -0.39300
O1058       O  0.61424272  0.89136257  0.19495968    -0.39200
O1059       O  0.67389899  0.07447770  0.24575412    -0.39900
O1060       O  0.61677287  0.09473849  0.23297915    -0.40000
C1061       C  0.16399607  0.79816196  0.99444479    -0.12200
C1062       C  0.13372755  0.81224952  0.01674477     0.04800
C1063       C  0.12963619  0.85212185  0.02156528    -0.07500
C1064       C  0.15642936  0.87698165  0.00500136    -0.08300
C1065       C  0.18736347  0.86280096  0.98321767    -0.02800
C1066       C  0.19046453  0.82273451  0.97759554     0.04000
N1067       N  0.22075966  0.80618656  0.95556935     0.66500
H1068       H  0.16737198  0.76755436  0.99025782     0.15400
H1069       H  0.15318269  0.90750853  0.00965907     0.15100
N1070       N  0.09980482  0.86767215  0.04493358     0.74200
O1071       O  0.25103048  0.79632502  0.97222245    -0.39300
O1072       O  0.21497439  0.79588402  0.92109045    -0.39200
O1073       O  0.10492904  0.87238024  0.08069258    -0.39900
O1074       O  0.07090820  0.88201566  0.02913072    -0.40000
C1075       C  0.35617098  0.81390177  0.98182657    -0.12200
C1076       C  0.34909871  0.82496038  0.94353432     0.04800
C1077       C  0.36814510  0.80516173  0.91373518    -0.07500
C1078       C  0.40009244  0.78266680  0.92266737    -0.08300
C1079       C  0.41183642  0.77816557  0.96116211    -0.02800
C1080       C  0.38707868  0.79021366  0.99079005     0.04000
N1081       N  0.39571091  0.78286084  0.03031109     0.66500
H1082       H  0.34007532  0.82687046  0.00521959     0.15400
H1083       H  0.41763185  0.77150734  0.89943447     0.15100
N1084       N  0.35724340  0.80988095  0.87442498     0.74200
O1085       O  0.41166950  0.80831720  0.05056871    -0.39300
O1086       O  0.38135759  0.75403767  0.04651028    -0.39200
O1087       O  0.37348014  0.83456922  0.85381997    -0.39900
O1088       O  0.33427214  0.78653631  0.85919027    -0.40000
C1089       C  0.35160539  0.00929504  0.84371151    -0.12200
C1090       C  0.34707277  0.96997963  0.83589538     0.04800
C1091       C  0.37100862  0.95204728  0.80885160    -0.07500
C1092       C  0.40205164  0.97206696  0.79421830    -0.08300
C1093       C  0.41002561  0.00972074  0.80647011    -0.02800
C1094       C  0.38284185  0.02944132  0.82888796     0.04000
N1095       N  0.38686214  0.06943224  0.83706480     0.66500
H1096       H  0.33264906  0.02360292  0.86384444     0.15400
H1097       H  0.42177736  0.95669050  0.77571186     0.15100
N1098       N  0.36613981  0.91257319  0.79865497     0.74200
O1099       O  0.37760837  0.09346225  0.81177492    -0.39300
O1100       O  0.39383230  0.08082358  0.87094764    -0.39200
O1101       O  0.33578962  0.90186853  0.78251179    -0.39900
O1102       O  0.39431448  0.89022052  0.79913148    -0.40000
C1103       C  0.31446627  0.94093707  0.10106349    -0.12200
C1104       C  0.33349058  0.93288424  0.06626288     0.04800
C1105       C  0.37258038  0.92293378  0.06741826    -0.07500
C1106       C  0.39191266  0.92322396  0.10223255    -0.08300
C1107       C  0.37372849  0.93355999  0.13642853    -0.02800
C1108       C  0.33449550  0.94158012  0.13621387     0.04000
N1109       N  0.31545175  0.95367850  0.17051680     0.66500
H1110       H  0.28484294  0.94938438  0.10068950     0.15400
H1111       H  0.42199657  0.91635655  0.10234148     0.15100
N1112       N  0.39387689  0.91423524  0.03324810     0.74200
O1113       O  0.31186303  0.98904665  0.17712484    -0.39300
O1114       O  0.29415865  0.93037578  0.18785578    -0.39200
O1115       O  0.42119725  0.93562222  0.02382483    -0.39900
O1116       O  0.39221257  0.88096751  0.01914425    -0.40000
C1117       C  0.50285864  0.30109774  0.16608642    -0.12200
C1118       C  0.47000575  0.30834798  0.14461866     0.04800
C1119       C  0.44991448  0.34266537  0.15107903    -0.07500
C1120       C  0.46429482  0.37007819  0.17708356    -0.08300
C1121       C  0.49846225  0.36372723  0.19710887    -0.02800
C1122       C  0.51694036  0.32797492  0.19242285     0.04000
N1123       N  0.55028950  0.31845105  0.21379830     0.66500
H1124       H  0.51840322  0.27462425  0.16154731     0.15400
H1125       H  0.44933704  0.39700582  0.18046117     0.15100
N1126       N  0.41683710  0.35155382  0.12911388     0.74200
O1127       O  0.54698475  0.30327844  0.24656290    -0.39300
O1128       O  0.58230851  0.31878822  0.19732533    -0.39200
O1129       O  0.38452515  0.34237370  0.14189269    -0.39900
O1130       O  0.41925017  0.37538149  0.10205720    -0.40000
C1131       C  0.41997806  0.11867440  0.17394480    -0.12200
C1132       C  0.45252386  0.13524980  0.15745619     0.04800
C1133       C  0.48857246  0.12194014  0.16884172    -0.07500
C1134       C  0.49160245  0.09028178  0.19310397    -0.08300
C1135       C  0.45915949  0.07127682  0.20662888    -0.02800
C1136       C  0.42307392  0.08682640  0.19851966     0.04000
N1137       N  0.38935986  0.06776057  0.21089096     0.66500
H1138       H  0.39205708  0.12827000  0.16511705     0.15400
H1139       H  0.51956068  0.07871326  0.19910108     0.15100
N1140       N  0.52246923  0.13905366  0.15422197     0.74200
O1141       O  0.37350608  0.07779012  0.24205923    -0.39300
O1142       O  0.37229717  0.04545271  0.18796789    -0.39200
O1143       O  0.53666250  0.16727460  0.17196168    -0.39900
O1144       O  0.54209926  0.12142559  0.12927152    -0.40000
C1145       C  0.60102440  0.19808396  0.10679749    -0.12200
C1146       C  0.58858253  0.20307602  0.06863351     0.04800
C1147       C  0.61193375  0.19016538  0.03818602    -0.07500
C1148       C  0.64370678  0.16772476  0.04624442    -0.08300
C1149       C  0.65237959  0.15717670  0.08418031    -0.02800
C1150       C  0.63338433  0.17588581  0.11478811     0.04000
N1151       N  0.64450803  0.16997689  0.15391607     0.66500
H1152       H  0.58399313  0.20907526  0.13047496     0.15400
H1153       H  0.65876212  0.15444707  0.02236741     0.15100
N1154       N  0.60012667  0.19320680  0.99899857     0.74200
O1155       O  0.67491822  0.18481513  0.16618153    -0.39300
O1156       O  0.62134496  0.15564930  0.17756937    -0.39200
O1157       O  0.61571775  0.21792493  0.97785723    -0.39900
O1158       O  0.58343449  0.16509536  0.98345289    -0.40000
C1159       C  0.39998563  0.08991974  0.98800473    -0.12200
C1160       C  0.38057163  0.11943283  0.00769592     0.04800
C1161       C  0.34045572  0.11771390  0.00958452    -0.07500
C1162       C  0.32109090  0.08674917  0.99218909    -0.08300
C1163       C  0.34090999  0.05680738  0.97361123    -0.02800
C1164       C  0.38093388  0.05878362  0.97168718     0.04000
N1165       N  0.40313811  0.02713914  0.95802515     0.61700
H1166       H  0.43076866  0.08980955  0.98676755     0.15400
H1167       H  0.29041740  0.08531119  0.99462744     0.15100
N1168       N  0.31886095  0.14661179  0.02917652     0.74200
O1169       O  0.41533582  0.02673250  0.92378100    -0.39300
O1170       O  0.41708644  0.00422247  0.98209039    -0.39200
O1171       O  0.29327519  0.16423198  0.01107797    -0.39900
O1172       O  0.31882332  0.14776719  0.06558975    -0.40000
C1173       C  0.38024147  0.34676992  0.01476961    -0.12200
C1174       C  0.37411912  0.30779099  0.00702374     0.04800
C1175       C  0.34116770  0.29710155  0.98616372    -0.07500
C1176       C  0.31492765  0.32515260  0.97446787    -0.08300
C1177       C  0.32032286  0.36381731  0.98410422    -0.02800
C1178       C  0.35360108  0.37449648  0.00431625     0.04000
N1179       N  0.36070572  0.41350522  0.01483110     0.66500
H1180       H  0.40534584  0.35582454  0.03036429     0.15400
H1181       H  0.28964144  0.31649912  0.95887622     0.15100
N1182       N  0.33390513  0.25802847  0.97640676     0.74200
O1183       O  0.35324013  0.42484947  0.04868206    -0.39300
O1184       O  0.38104284  0.43403969  0.99325293    -0.39200
O1185       O  0.30452165  0.24194254  0.98941704    -0.39900
O1186       O  0.35147931  0.24285325  0.94848864    -0.40000
C1187       C  0.53592967  0.20091266  0.91541768    -0.12200
C1188       C  0.49844048  0.20400017  0.92852445     0.04800
C1189       C  0.46898403  0.18796537  0.90631102    -0.07500
C1190       C  0.47782766  0.16408459  0.87495666    -0.08300
C1191       C  0.51577932  0.15720399  0.86488108    -0.02800
C1192       C  0.54490950  0.17752029  0.88380187     0.04000
N1193       N  0.58393322  0.17006893  0.87513324     0.66500
H1194       H  0.55862002  0.21388851  0.93189904     0.15400
H1195       H  0.45523220  0.14870903  0.86030710     0.15100
N1196       N  0.43018891  0.19366473  0.91684172     0.74200
O1197       O  0.60029884  0.18862900  0.84880771    -0.39300
O1198       O  0.60346723  0.15018791  0.89794984    -0.39200
O1199       O  0.41315457  0.22281517  0.90442501    -0.39900
O1200       O  0.41113467  0.16620536  0.93025238    -0.40000
C1201       C  0.05377821  0.64725441  0.65483610    -0.12200
C1202       C  0.03900776  0.68468126  0.65503753     0.04800
C1203       C  0.01109276  0.69471543  0.68221076    -0.07500
C1204       C  0.99656040  0.66705854  0.70703284    -0.08300
C1205       C  0.00927317  0.62885131  0.70549860    -0.02800
C1206       C  0.03891125  0.61915686  0.67970153     0.04000
N1207       N  0.05177986  0.58052118  0.67599091     0.66500
H1208       H  0.07523936  0.63926850  0.63380789     0.15400
H1209       H  0.97446290  0.67546476  0.72724053     0.15100
N1210       N  0.99676403  0.73294904  0.68436955     0.74200
O1211       O  0.03205664  0.55649301  0.65743962    -0.39300
O1212       O  0.08512628  0.57191034  0.68601951    -0.39200
O1213       O  0.96392065  0.74028797  0.67195476    -0.39900
O1214       O  0.01792563  0.75982782  0.69595344    -0.40000
C1215       C  0.17730792  0.69447779  0.51478073    -0.12200
C1216       C  0.13948491  0.68402302  0.52255205     0.04800
C1217       C  0.12769665  0.64616376  0.51405231    -0.07500
C1218       C  0.15353277  0.62001043  0.49806240    -0.08300
C1219       C  0.19123944  0.63060951  0.49046739    -0.02800
C1220       C  0.20315354  0.66819306  0.49923074     0.04000
N1221       N  0.24202295  0.67934115  0.49514333     0.66500
H1222       H  0.18728373  0.72310643  0.52151511     0.15400
H1223       H  0.14400265  0.59115334  0.49164119     0.15100
N1224       N  0.09010873  0.63325901  0.52266715     0.74200
O1225       O  0.25149871  0.70218614  0.46879364    -0.39300
O1226       O  0.26517121  0.67207503  0.52185258    -0.39200
O1227       O  0.06635194  0.62916133  0.49572594    -0.39900
O1228       O  0.08309120  0.61915527  0.55533040    -0.40000
C1229       C  0.69024102  0.82500981  0.54469970    -0.12200
C1230       C  0.67847285  0.86282099  0.55231795     0.04800
C1231       C  0.63955238  0.87206313  0.54775754    -0.07500
C1232       C  0.61385985  0.84417545  0.53473307    -0.08300
C1233       C  0.62609782  0.80708131  0.52550543    -0.02800
C1234       C  0.66452258  0.79733526  0.53111878     0.04000
N1235       N  0.67769492  0.75930909  0.52357312     0.66500
H1236       H  0.71979037  0.81707570  0.54825500     0.15400
H1237       H  0.58437222  0.85200719  0.53039032     0.15100
N1238       N  0.62548243  0.90956961  0.55619981     0.74200
O1239       O  0.69587771  0.75210082  0.49294524    -0.39300
O1240       O  0.67677743  0.73481281  0.55012700    -0.39200
O1241       O  0.61831009  0.93203813  0.52882887    -0.39900
O1242       O  0.61231091  0.91678687  0.58935438    -0.40000
C1243       C  0.88350790  0.84537139  0.60505795    -0.12200
C1244       C  0.86467129  0.84953593  0.56957967     0.04800
C1245       C  0.88075197  0.83314602  0.53610501    -0.07500
C1246       C  0.91631535  0.81525464  0.53821779    -0.08300
C1247       C  0.93670906  0.81461022  0.57308692    -0.02800
C1248       C  0.91965125  0.82907550  0.60694569     0.04000
N1249       N  0.93922768  0.82934169  0.64307535     0.66500
H1250       H  0.87182117  0.85812479  0.63112610     0.15400
H1251       H  0.92912545  0.80407280  0.51196218     0.15100
N1252       N  0.86211446  0.83585142  0.49964925     0.74200
O1253       O  0.96499149  0.85380123  0.64883134    -0.39300
O1254       O  0.92435117  0.81296592  0.67170523    -0.39200
O1255       O  0.87385168  0.85950225  0.47500756    -0.39900
O1256       O  0.83775345  0.81105248  0.49006745    -0.40000
C1257       C  0.65498616  0.96871213  0.66205769    -0.12200
C1258       C  0.68485361  0.99326081  0.65230815     0.04800
C1259       C  0.68767875  0.02943944  0.67031436    -0.07500
C1260       C  0.66084962  0.03999314  0.69841071    -0.08300
C1261       C  0.63029683  0.01571530  0.70710087    -0.02800
C1262       C  0.62717768  0.97994663  0.68827374     0.04000
N1263       N  0.59604980  0.95458201  0.69544964     0.66500
H1264       H  0.65282897  0.94069548  0.64859792     0.15400
H1265       H  0.66295415  0.06784700  0.71224645     0.15100
N1266       N  0.71772141  0.05532229  0.66103803     0.74200
O1267       O  0.56545391  0.95894492  0.67705973    -0.39300
O1268       O  0.60225284  0.92307290  0.71179047    -0.39200
O1269       O  0.71570802  0.07463968  0.63049557    -0.39900
O1270       O  0.74073192  0.06545421  0.68704092    -0.40000
C1271       C  0.16654480  0.01841478  0.81731975    -0.12200
C1272       C  0.13309543  0.03343960  0.83350644     0.04800
C1273       C  0.12870896  0.03311619  0.87414753    -0.07500
C1274       C  0.15703235  0.01691551  0.89742817    -0.08300
C1275       C  0.18926954  0.99984406  0.88088226    -0.02800
C1276       C  0.19421031  0.00125910  0.84049455     0.04000
N1277       N  0.22724051  0.98527651  0.82254822     0.66500
H1278       H  0.17054495  0.01847286  0.78628838     0.15400
H1279       H  0.15295345  0.01609646  0.92842626     0.15100
N1280       N  0.09575848  0.04906756  0.89230829     0.74200
O1281       O  0.22572271  0.95210787  0.80795485    -0.39300
O1282       O  0.25509424  0.00667200  0.81486438    -0.39200
O1283       O  0.06738843  0.02790240  0.89859098    -0.39900
O1284       O  0.09851862  0.08057242  0.91011840    -0.40000
C1285       C  0.09651081  0.92067998  0.70672702    -0.12200
C1286       C  0.06199128  0.92367553  0.72663876     0.04800
C1287       C  0.03613108  0.89284603  0.72461404    -0.07500
C1288       C  0.04323686  0.86193793  0.69918921    -0.08300
C1289       C  0.07566045  0.86164154  0.67540999    -0.02800
C1290       C  0.10329035  0.89051949  0.68073492     0.04000
N1291       N  0.13718327  0.89142075  0.65792204     0.66500
H1292       H  0.11636430  0.94442622  0.70759760     0.15400
H1293       H  0.02207388  0.83965727  0.69599043     0.15100
N1294       N  0.00150682  0.89385684  0.74627514     0.74200
O1295       O  0.13498554  0.89831808  0.62231313    -0.39300
O1296       O  0.16888622  0.89463155  0.67458547    -0.39200
O1297       O  0.97023436  0.89893270  0.72932860    -0.39900
O1298       O  0.00160857  0.88346749  0.78106553    -0.40000
C1299       C  0.95957212  0.13601227  0.84168503    -0.12200
C1300       C  0.99876710  0.13416462  0.83427615     0.04800
C1301       C  0.02300727  0.16150596  0.85226460    -0.07500
C1302       C  0.00814079  0.18829789  0.87793360    -0.08300
C1303       C  0.96926849  0.18981199  0.88600376    -0.02800
C1304       C  0.94455297  0.16404621  0.86671345     0.04000
N1305       N  0.90430024  0.16600944  0.87192714     0.66500
H1306       H  0.94042813  0.11612026  0.82750319     0.15400
H1307       H  0.02756605  0.20823429  0.89170207     0.15100
N1308       N  0.06306780  0.16272420  0.84518577     0.74200
O1309       O  0.88511991  0.18888229  0.85177948    -0.39300
O1310       O  0.88744568  0.14040615  0.89088912    -0.39200
O1311       O  0.07566618  0.18328061  0.81823740    -0.39900
O1312       O  0.08565927  0.15095319  0.87068894    -0.40000
C1313       C  0.90446336  0.95567234  0.65556635    -0.12200
C1314       C  0.86701659  0.96566311  0.66561695     0.04800
C1315       C  0.86128694  0.99065627  0.69739871    -0.07500
C1316       C  0.89295793  0.00675693  0.71665595    -0.08300
C1317       C  0.93007202  0.99925316  0.70358707    -0.02800
C1318       C  0.93553228  0.97342993  0.67264343     0.04000
N1319       N  0.97226041  0.96726706  0.65582003     0.66500
H1320       H  0.90993049  0.93625827  0.63160895     0.15400
H1321       H  0.88848154  0.02677820  0.74026735     0.15100
N1322       N  0.82399800  0.00259461  0.70827277     0.74200
O1323       O  0.98652481  0.93415646  0.65599154    -0.39300
O1324       O  0.98528594  0.99163478  0.63257464    -0.39200
O1325       O  0.80521418  0.98289942  0.73198163    -0.39900
O1326       O  0.81357040  0.03631513  0.70108317    -0.40000
C1327       C  0.00450778  0.33137270  0.39299021    -0.12200
C1328       C  0.96938366  0.31314552  0.38685701     0.04800
C1329       C  0.94606892  0.32620489  0.35638689    -0.07500
C1330       C  0.95957019  0.35471706  0.33124341    -0.08300
C1331       C  0.99585157  0.37072670  0.33631309    -0.02800
C1332       C  0.01758912  0.35990778  0.36853448     0.04000
N1333       N  0.05341651  0.37757176  0.37668966     0.66500
H1334       H  0.02242860  0.32343473  0.41702595     0.15400
H1335       H  0.94248345  0.36291742  0.30668262     0.15100
N1336       N  0.90934719  0.31009569  0.34973558     0.74200
O1337       O  0.05429975  0.40943741  0.39406704    -0.39300
O1338       O  0.08373450  0.35871288  0.37236664    -0.39200
O1339       O  0.88017395  0.32752500  0.36175412    -0.39900
O1340       O  0.90573043  0.28231255  0.32654846    -0.40000
C1341       C  0.85902993  0.11911551  0.54939968    -0.12200
C1342       C  0.85055929  0.13483850  0.51325519     0.04800
C1343       C  0.81661228  0.12320541  0.49474456    -0.07500
C1344       C  0.79682324  0.09110098  0.50873539    -0.08300
C1345       C  0.80962595  0.07152185  0.54153655    -0.02800
C1346       C  0.83901624  0.08797764  0.56375590     0.04000
N1347       N  0.85023708  0.07218080  0.59996186     0.66500
H1348       H  0.88345548  0.12957206  0.56603031     0.15400
H1349       H  0.77265095  0.08017923  0.49263967     0.15100
N1350       N  0.80214258  0.14323567  0.46198706     0.74200
O1351       O  0.87925029  0.05102621  0.60163670    -0.39300
O1352       O  0.83624814  0.08565141  0.63075023    -0.39200
O1353       O  0.79559681  0.17867645  0.46478157    -0.39900
O1354       O  0.78875252  0.12479116  0.43365893    -0.40000
C1355       C  0.83688930  0.29849614  0.53294511    -0.12200
C1356       C  0.86945820  0.31028385  0.51297609     0.04800
C1357       C  0.87589774  0.34974087  0.50771419    -0.07500
C1358       C  0.84958155  0.37648666  0.52189661    -0.08300
C1359       C  0.81662181  0.36481185  0.54166173    -0.02800
C1360       C  0.81081736  0.32514843  0.54764394     0.04000
N1361       N  0.77845867  0.31117165  0.56814537     0.66500
H1362       H  0.83165333  0.26825680  0.53733356     0.15400
H1363       H  0.85488441  0.40659803  0.51691115     0.15100
N1364       N  0.90781652  0.36304076  0.48603942     0.74200
O1365       O  0.75098528  0.29694269  0.54963264    -0.39300
O1366       O  0.78064569  0.30601382  0.60407668    -0.39200
O1367       O  0.90505248  0.36682253  0.44996408    -0.39900
O1368       O  0.93629893  0.37666473  0.50342347    -0.40000
C1369       C  0.96443604  0.15707240  0.60540403    -0.12200
C1370       C  0.98324203  0.19040918  0.59431531     0.04800
C1371       C  0.01218613  0.20512421  0.61852336    -0.07500
C1372       C  0.02437863  0.18368699  0.65067298    -0.08300
C1373       C  0.00754013  0.14824676  0.65924669    -0.02800
C1374       C  0.97587171  0.13619631  0.63739153     0.04000
N1375       N  0.95681454  0.10106758  0.64549475     0.66500
H1376       H  0.94204550  0.14515895  0.58685333     0.15400
H1377       H  0.04869793  0.19345565  0.66728404     0.15100
N1378       N  0.03103699  0.24017033  0.60949435     0.74200
O1379       O  0.93079207  0.10070650  0.67060311    -0.39300
O1380       O  0.95968541  0.07344163  0.62197861    -0.39200
O1381       O  0.01397544  0.27145859  0.61530527    -0.39900
O1382       O  0.06655124  0.24035821  0.60443349    -0.40000
C1383       C  0.83056176  0.96694100  0.21454891    -0.12200
C1384       C  0.86485658  0.95150515  0.20105577     0.04800
C1385       C  0.87225806  0.95116756  0.16090894    -0.07500
C1386       C  0.84611141  0.96778717  0.13535643    -0.08300
C1387       C  0.81282240  0.98517626  0.14934511    -0.02800
C1388       C  0.80479148  0.98383898  0.18922076     0.04000
N1389       N  0.77021197  0.99916340  0.20444922     0.66500
H1390       H  0.82422277  0.96705449  0.24518661     0.15400
H1391       H  0.85242770  0.96822883  0.10473662     0.15100
N1392       N  0.90579038  0.93352414  0.14568008     0.74200
O1393       O  0.74118089  0.97803532  0.20614110    -0.39300
O1394       O  0.77086817  0.03018108  0.22334376    -0.39200
O1395       O  0.90501633  0.89868295  0.13582070    -0.39900
O1396       O  0.93378953  0.95396575  0.13615036    -0.40000
C1397       C  0.82546434  0.97123409  0.38541173    -0.12200
C1398       C  0.83558853  0.93376170  0.37472326     0.04800
C1399       C  0.81541235  0.90296937  0.39137075    -0.07500
C1400       C  0.79156754  0.90983593  0.42333452    -0.08300
C1401       C  0.78653567  0.94712258  0.43773191    -0.02800
C1402       C  0.80098841  0.97808220  0.41644958     0.04000
N1403       N  0.79538665  0.01658920  0.42941993     0.66500
H1404       H  0.83922019  0.99547047  0.37189300     0.15400
H1405       H  0.78031234  0.88574711  0.43923497     0.15100
N1406       N  0.82137813  0.86448154  0.37860353     0.74200
O1407       O  0.82239328  0.03426237  0.44550534    -0.39300
O1408       O  0.76690780  0.03505712  0.41769309    -0.39200
O1409       O  0.84028431  0.84182930  0.39919236    -0.39900
O1410       O  0.80176726  0.85133114  0.35109102    -0.40000
C1411       C  0.01494884  0.84543985  0.39102579    -0.12200
C1412       C  0.97832342  0.83340391  0.38102200     0.04800
C1413       C  0.96226061  0.80211343  0.40081682    -0.07500
C1414       C  0.98190905  0.78568920  0.43208098    -0.08300
C1415       C  0.01719852  0.80027905  0.44413848    -0.02800
C1416       C  0.03406881  0.82969574  0.42244479     0.04000
N1417       N  0.06891873  0.84679791  0.43432926     0.66500
H1418       H  0.02764657  0.86957380  0.37640046     0.15400
H1419       H  0.96815238  0.76360207  0.44888698     0.15100
N1420       N  0.92509470  0.78854987  0.39146522     0.74200
O1421       O  0.09874732  0.83944145  0.41540317    -0.39300
O1422       O  0.06773873  0.87633854  0.45549813    -0.39200
O1423       O  0.92031017  0.76905610  0.36105124    -0.39900
O1424       O  0.89954418  0.78866351  0.41707181    -0.40000
C1425       C  0.96969308  0.11763978  0.35092660    -0.12200
C1426       C  0.93356904  0.12880290  0.36404098     0.04800
C1427       C  0.90166988  0.10737744  0.35179308    -0.07500
C1428       C  0.90668555  0.07381313  0.32953493    -0.08300
C1429       C  0.94308210  0.06107045  0.31905683    -0.02800
C1430       C  0.97463235  0.08426528  0.32851792     0.04000
N1431       N  0.01228232  0.07222222  0.31880081     0.66500
H1432       H  0.99457294  0.13324368  0.36066117     0.15400
H1433       H  0.88228287  0.05584102  0.32339615     0.15100
N1434       N  0.86441218  0.11700143  0.36511831     0.74200
O1435       O  0.02565744  0.07979436  0.28592130    -0.39300
O1436       O  0.03419834  0.06055020  0.34494625    -0.39200
O1437       O  0.84814587  0.14646084  0.35232488    -0.39900
O1438       O  0.84535163  0.09269437  0.38368808    -0.40000
C1439       C  0.97558689  0.81988342  0.19364303    -0.12200
C1440       C  0.99776554  0.85053482  0.20755091     0.04800
C1441       C  0.03578296  0.85363248  0.19452770    -0.07500
C1442       C  0.04997613  0.82750597  0.16705154    -0.08300
C1443       C  0.02694298  0.79820373  0.15198641    -0.02800
C1444       C  0.98977641  0.79383478  0.16650413     0.04000
N1445       N  0.96617296  0.76263854  0.15448108     0.66500
H1446       H  0.94669068  0.81591779  0.20370701     0.15400
H1447       H  0.07875754  0.83104780  0.15646118     0.15100
N1448       N  0.06048422  0.88289799  0.20872671     0.74200
O1449       O  0.97176921  0.72971587  0.16807953    -0.39300
O1450       O  0.93632049  0.76913731  0.13552248    -0.39200
O1451       O  0.08736315  0.87385663  0.23087988    -0.39900
O1452       O  0.06094836  0.91509873  0.19248819    -0.40000
C1453       C  0.35030964  0.13290573  0.45915824    -0.12200
C1454       C  0.31481538  0.13098444  0.47767972     0.04800
C1455       C  0.30655116  0.15694932  0.50771871    -0.07500
C1456       C  0.33417996  0.18287206  0.52020103    -0.08300
C1457       C  0.37066459  0.18364336  0.50343420    -0.02800
C1458       C  0.37833635  0.15885445  0.47191658     0.04000
N1459       N  0.41413594  0.15980754  0.45245491     0.66500
H1460       H  0.35681957  0.11324936  0.43573880     0.15400
H1461       H  0.32717287  0.20184566  0.54406903     0.15100
N1462       N  0.27001848  0.15723600  0.52589045     0.74200
O1463       O  0.43909890  0.13513367  0.46020925    -0.39300
O1464       O  0.41808864  0.18046964  0.42301233    -0.39200
O1465       O  0.26610123  0.14363209  0.55928781    -0.39900
O1466       O  0.24313938  0.17584761  0.51096696    -0.40000
C1467       C  0.08245765  0.16719142  0.41824639    -0.12200
C1468       C  0.07287140  0.18360207  0.45405033     0.04800
C1469       C  0.10008383  0.18386436  0.48396048    -0.07500
C1470       C  0.13430048  0.16399359  0.47905145    -0.08300
C1471       C  0.14176241  0.14391939  0.44480576    -0.02800
C1472       C  0.11672615  0.14745840  0.41339878     0.04000
N1473       N  0.12381671  0.12775657  0.37780752     0.66500
H1474       H  0.06203850  0.16716859  0.39485705     0.15400
H1475       H  0.15311488  0.16073262  0.50355701     0.15100
N1476       N  0.09129052  0.19908721  0.52126342     0.74200
O1477       O  0.11025313  0.09470925  0.37257959    -0.39300
O1478       O  0.13610312  0.14622701  0.34923429    -0.39200
O1479       O  0.07438640  0.17820211  0.54539257    -0.39900
O1480       O  0.10813627  0.22890486  0.53282870    -0.40000
C1481       C  0.18447948  0.08883108  0.60609213    -0.12200
C1482       C  0.19660533  0.05293037  0.59267065     0.04800
C1483       C  0.18754994  0.01996985  0.61403830    -0.07500
C1484       C  0.16284559  0.02291136  0.64550364    -0.08300
C1485       C  0.14729960  0.05830338  0.65637595    -0.02800
C1486       C  0.16041663  0.09191067  0.63811760     0.04000
N1487       N  0.14661239  0.12893833  0.64903559     0.66500
H1488       H  0.19129201  0.11432699  0.58982729     0.15400
H1489       H  0.15361626  0.99693982  0.65966754     0.15100
N1490       N  0.19813123  0.98269910  0.60073200     0.74200
O1491       O  0.16440818  0.14837421  0.67396480    -0.39300
O1492       O  0.12082574  0.14460750  0.62944190    -0.39200
O1493       O  0.22687365  0.96670500  0.61514363    -0.39900
O1494       O  0.17382614  0.96255426  0.58320559    -0.40000
C1495       C  0.12815217  0.99281300  0.34275857    -0.12200
C1496       C  0.12546074  0.00494383  0.38133679     0.04800
C1497       C  0.09056070  0.00114167  0.40110488    -0.07500
C1498       C  0.05996491  0.98333227  0.38322686    -0.08300
C1499       C  0.06239814  0.97058786  0.34494444    -0.02800
C1500       C  0.09656743  0.97606135  0.32424736     0.04000
N1501       N  0.10044812  0.96237500  0.28555871     0.66500
H1502       H  0.15492892  0.99522272  0.32747505     0.15400
H1503       H  0.03344103  0.98094863  0.39903616     0.15100
N1504       N  0.08535866  0.01656542  0.43914158     0.74200
O1505       O  0.09556918  0.98509519  0.25789061    -0.39300
O1506       O  0.11682382  0.93078393  0.27949829    -0.39200
O1507       O  0.07647252  0.05135732  0.44323376    -0.39900
O1508       O  0.08196888  0.99424406  0.46739357    -0.40000
C1509       C  0.30396786  0.98402075  0.34489197    -0.12200
C1510       C  0.31549220  0.99510784  0.38213266     0.04800
C1511       C  0.35424496  0.99192396  0.39213343    -0.07500
C1512       C  0.38035558  0.97862447  0.36488141    -0.08300
C1513       C  0.36905924  0.96871619  0.32723886    -0.02800
C1514       C  0.33027315  0.97100742  0.31752578     0.04000
N1515       N  0.31726949  0.96246732  0.27948295     0.66500
H1516       H  0.27439491  0.98620168  0.33651502     0.15400
H1517       H  0.40997066  0.97689503  0.37322283     0.15100
N1518       N  0.36810559  0.00381962  0.42908280     0.74200
O1519       O  0.30587149  0.92908152  0.27157621    -0.39300
O1520       O  0.30884036  0.98965989  0.25737031    -0.39200
O1521       O  0.37770725  0.97897110  0.45341920    -0.39900
O1522       O  0.37752416  0.03829871  0.43445637    -0.40000
C1523       C  0.15729907  0.87075909  0.49253109    -0.12200
C1524       C  0.16330365  0.85633648  0.52950050     0.04800
C1525       C  0.19596028  0.86883324  0.54978680    -0.07500
C1526       C  0.21640897  0.90064663  0.53603547    -0.08300
C1527       C  0.20581076  0.91862840  0.50162730    -0.02800
C1528       C  0.17766879  0.90165487  0.47837351     0.04000
N1529       N  0.16744396  0.91762203  0.44191575     0.66500
H1530       H  0.13352926  0.85886112  0.47436433     0.15400
H1531       H  0.23913036  0.91295052  0.55359809     0.15100
N1532       N  0.20833202  0.85002866  0.58405697     0.74200
O1533       O  0.19187100  0.91961894  0.41530371    -0.39300
O1534       O  0.13299212  0.92430146  0.43439062    -0.39200
O1535       O  0.21850516  0.81542589  0.58201461    -0.39900
O1536       O  0.21713140  0.86954264  0.61350075    -0.40000
loop_ 
_geom_bond_atom_site_label_1 
_geom_bond_atom_site_label_2 
_geom_bond_distance 
_geom_bond_site_symmetry_2 
_ccdc_geom_bond_type 
O1          Cr19   1.960       .  S
O1            C9   1.255       .  A
O2          Cr19   1.992       .  S
O2            C3   1.261       .  A
C3            O4   1.258       .  A
C3         C1471   1.462       .  S
O4          Cr20   1.982       .  S
O5          Cr20   2.034       .  S
O5            C6   1.273       .  A
C6            O7   1.263       .  A
C6         C1454   1.476       .  S
O7          Cr21   1.967       .  S
O8          Cr21   2.026       .  S
O8            C9   1.266       .  A
C9         C1482   1.467       .  S
O10         Cr19   1.999   1_565  S
O10          C18   1.265       .  A
O11         Cr19   1.938       .  S
O11          C12   1.251       .  A
C12          O13   1.271       .  A
C12        C1496   1.471       .  S
O13         Cr20   2.042       .  S
O14         Cr20   1.965       .  S
O14          C15   1.258       .  A
C15          O16   1.264       .  A
C15        C1510   1.477   1_545  S
O16         Cr21   2.000       .  S
O17         Cr21   1.990   1_565  S
O17          C18   1.261       .  A
C18        C1527   1.469       .  S
Cr19         O22   1.747       .  S
Cr20         O22   1.774       .  S
Cr21         O22   1.770       .  S
O23         Cr41   1.995       .  S
O23          C31   1.260   1_565  A
O24         Cr41   1.970       .  S
O24          C25   1.260       .  A
C25          O26   1.268       .  A
C25        C1398   1.487       .  S
O26         Cr42   2.026       .  S
O27         Cr42   1.981       .  S
O27          C28   1.265       .  A
C28          O29   1.268       .  A
C28        C1384   1.480       .  S
O29         Cr43   2.015       .  S
O30         Cr43   2.014   1_545  S
O30          C31   1.267       .  A
C31        C1429   1.483       .  S
O32         Cr41   1.965   1_455  S
O32          C40   1.261       .  A
O33         Cr41   2.007       .  S
O33          C34   1.264       .  A
C34          O35   1.262       .  A
C34        C1412   1.483       .  S
O35         Cr42   2.004       .  S
O36         Cr42   1.992       .  S
O36          C37   1.265       .  A
C37          O38   1.263       .  A
C37        C1440   1.490       .  S
O38         Cr43   1.992       .  S
O39         Cr43   2.018   1_455  S
O39          C40   1.267       .  A
C40        C1499   1.473       .  S
Cr41         O44   1.759       .  S
Cr42         O44   1.776       .  S
Cr43         O44   1.778       .  S
O45         Cr63   2.025   1_455  S
O45          C53   1.270       .  A
O46         Cr63   1.958       .  S
O46          C47   1.261       .  A
C47          O48   1.271       .  A
C47        C1328   1.491       .  S
O48         Cr64   2.030       .  S
O49         Cr64   2.008       .  S
O49          C50   1.263       .  A
C50          O51   1.262       .  A
C50        C1426   1.487       .  S
O51         Cr65   2.006       .  S
O52         Cr65   1.968   1_455  S
O52          C53   1.261       .  A
C53        C1468   1.475       .  S
O54         Cr63   2.004       .  S
O54          C62   1.262       .  A
O55         Cr63   2.010       .  S
O55          C56   1.265       .  A
C56          O57   1.259       .  A
C56        C1356   1.478       .  S
O57         Cr64   1.972       .  S
O58         Cr64   2.036       .  S
O58          C59   1.273       .  A
C59          O60   1.261       .  A
C59        C1342   1.490       .  S
O60         Cr65   1.957       .  S
O61         Cr65   2.001       .  S
O61          C62   1.263       .  A
C62        C1370   1.482       .  S
Cr63         O66   1.776       .  S
Cr64         O66   1.778       .  S
Cr65         O66   1.756       .  S
O67         Cr85   2.008   1_565  S
O67          C75   1.264       .  A
O68         Cr85   2.018       .  S
O68          C69   1.269       .  A
C69          O70   1.268       .  A
C69        C1272   1.485       .  S
O70         Cr86   1.990       .  S
O71         Cr86   1.991       .  S
O71          C72   1.258       .  A
C72          O73   1.259       .  A
C72        C1485   1.475       .  S
O73         Cr87   1.979       .  S
O74         Cr87   1.988   1_565  S
O74          C75   1.260       .  A
C75        C1286   1.476       .  S
O76         Cr85   2.029   1_655  S
O76          C84   1.267       .  A
O77         Cr85   2.008   1_655  S
O77          C78   1.268   1_655  A
C78          O79   1.255       .  A
C78        C1300   1.484   1_455  S
O79         Cr86   1.964       .  S
O80         Cr86   2.008       .  S
O80          C81   1.267       .  A
C81          O82   1.265       .  A
C81        C1373   1.484       .  S
O82         Cr87   1.997       .  S
O83         Cr87   1.961   1_655  S
O83          C84   1.254       .  A
C84        C1317   1.475   1_545  S
Cr85         O88   1.781       .  S
Cr86         O88   1.771       .  S
Cr87         O88   1.757       .  S
O89        Cr107   2.003       .  S
O89          C97   1.261       .  A
O90        Cr107   2.015       .  S
O90          C91   1.269       .  A
C91          O92   1.265       .  A
C91        C1230   1.489       .  S
O92        Cr108   1.985       .  S
O93        Cr108   1.997       .  S
O93          C94   1.265       .  A
C94          O95   1.263       .  A
C94        C1244   1.475       .  S
O95        Cr109   1.982       .  S
O96        Cr109   1.983       .  S
O96          C97   1.258       .  A
C97        C1401   1.471       .  S
O98        Cr107   2.024   1_545  S
O98         C106   1.269       .  A
O99        Cr107   1.986       .  S
O99         C100   1.259       .  A
C100        O101   1.261       .  A
C100       C1258   1.463       .  S
O101       Cr108   1.979       .  S
O102       Cr108   2.021       .  S
O102        C103   1.266       .  A
C103        O104   1.260       .  A
C103       C1314   1.490       .  S
O104       Cr109   1.975       .  S
O105       Cr109   1.960   1_545  S
O105        C106   1.258       .  A
C106       C1345   1.481       .  S
Cr107       O110   1.774       .  S
Cr108       O110   1.770       .  S
Cr109       O110   1.755       .  S
O111       Cr129   1.973       .  S
O111        C119   1.262   1_455  A
O112       Cr129   2.003       .  S
O112        C113   1.262       .  A
C113        O114   1.262       .  A
C113       C1289   1.484       .  S
O114       Cr130   2.004       .  S
O115       Cr130   2.014       .  S
O115        C116   1.264       .  A
C116        O117   1.262       .  A
C116       C1202   1.476       .  S
O117       Cr131   1.980       .  S
O118       Cr131   2.009   1_655  S
O118        C119   1.266       .  A
C119       C1247   1.471       .  S
O120       Cr129   1.994       .  S
O120        C128   1.260       .  A
O121       Cr129   1.962       .  S
O121        C122   1.261       .  A
C122        O123   1.268       .  A
C122       C1524   1.490       .  S
O123       Cr130   2.030       .  S
O124       Cr130   1.966       .  S
O124        C125   1.261       .  A
C125        O126   1.267       .  A
C125       C1216   1.483       .  S
O126       Cr131   2.008       .  S
O127       Cr131   2.005       .  S
O127        C128   1.265       .  A
C128       C1415   1.482       .  S
Cr129       O132   1.761       .  S
Cr130       O132   1.782       .  S
Cr131       O132   1.777       .  S
O133       Cr151   1.965       .  S
O133        C141   1.254       .  A
O134       Cr151   1.996       .  S
O134        C135   1.262       .  A
C135        O136   1.262       .  A
C135       C1132   1.483       .  S
O136       Cr152   2.002       .  S
O137       Cr152   2.040       .  S
O137        C138   1.275       .  A
C138        O139   1.260       .  A
C138       C1118   1.474       .  S
O139       Cr153   1.953       .  S
O140       Cr153   2.042       .  S
O140        C141   1.269       .  A
C141       C1146   1.476       .  S
O142       Cr151   2.008   1_556  S
O142        C150   1.267       .  A
O143       Cr151   1.950       .  S
O143        C144   1.257       .  A
C144        O145   1.274       .  A
C144       C1160   1.492       .  S
O145       Cr152   2.041       .  S
O146       Cr152   1.994       .  S
O146        C147   1.260       .  A
C147        O148   1.266       .  A
C147       C1174   1.492       .  S
O148       Cr153   2.011       .  S
O149       Cr153   1.983   1_556  S
O149        C150   1.258       .  A
C150       C1188   1.466       .  S
Cr151       O154   1.754       .  S
Cr152       O154   1.774       .  S
Cr153       O154   1.772       .  S
O155       Cr173   1.963   1_554  S
O155        C163   1.252       .  A
O156       Cr173   1.962       .  S
O156        C157   1.258       .  A
C157        O158   1.274       .  A
C157       C1076   1.490       .  S
O158       Cr174   2.048       .  S
O159       Cr174   1.971       .  S
O159        C160   1.261       .  A
C160        O161   1.269       .  A
C160       C1065   1.492       .  S
O161       Cr175   2.015       .  S
O162       Cr175   2.017   1_554  S
O162        C163   1.267       .  A
C163       C1104   1.478       .  S
O164       Cr173   1.973       .  S
O164        C172   1.264   1_565  A
O165       Cr173   1.986       .  S
O165        C166   1.255       .  A
C166        O167   1.253       .  A
C166       C1090   1.465       .  S
O167       Cr174   1.993       .  S
O168       Cr174   1.998       .  S
O168        C169   1.265       .  A
C169        O170   1.265       .  A
C169       C1275   1.479       .  S
O170       Cr175   1.993       .  S
O171       Cr175   2.026   1_545  S
O171        C172   1.273       .  A
C172       C1163   1.486       .  S
Cr173       O176   1.761       .  S
Cr174       O176   1.774       .  S
Cr175       O176   1.772       .  S
O177       Cr195   2.011   1_545  S
O177        C185   1.267       .  A
O178       Cr195   1.983       .  S
O178        C179   1.260       .  A
C179        O180   1.258       .  A
C179       C1513   1.478       .  S
O180       Cr196   1.981       .  S
O181       Cr196   2.006       .  S
O181        C182   1.264       .  A
C182        O183   1.260       .  A
C182       C1107   1.464       .  S
O183       Cr197   1.972       .  S
O184       Cr197   1.995   1_545  S
O184        C185   1.263       .  A
C185       C1135   1.480       .  S
O186       Cr195   1.997       .  S
O186        C194   1.263       .  A
O187       Cr195   1.982       .  S
O187        C188   1.265       .  A
C188        O189   1.268       .  A
C188       C1034   1.476       .  S
O189       Cr196   2.003       .  S
O190       Cr196   1.984       .  S
O190        C191   1.258       .  A
C191        O192   1.260       .  A
C191       C1023   1.466       .  S
O192       Cr197   1.986       .  S
O193       Cr197   1.984       .  S
O193        C194   1.260       .  A
C194       C1051   1.483       .  S
Cr195       O198   1.772       .  S
Cr196       O198   1.780       .  S
Cr197       O198   1.762       .  S
O199       Cr217   2.020       .  S
O199        C207   1.266   1_554  A
O200       Cr217   2.017       .  S
O200        C201   1.271       .  A
C201        O202   1.260       .  A
C201        C978   1.485       .  S
O202       Cr218   1.961       .  S
O203       Cr218   2.039       .  S
O203        C204   1.272       .  A
C204        O205   1.260       .  A
C204       C1149   1.483       .  S
O205       Cr219   1.956       .  S
O206       Cr219   1.977       .  S
O206        C207   1.257   1_554  A
C207        C995   1.482       .  S
O208       Cr217   2.030   1_565  S
O208        C216   1.272       .  A
O209       Cr217   1.993   1_565  S
O209        C210   1.263   1_565  A
C210        O211   1.264       .  A
C210       C1387   1.479   1_545  S
O211       Cr218   1.995       .  S
O212       Cr218   1.992       .  S
O212        C213   1.254       .  A
C213        O214   1.257       .  A
C213       C1048   1.467       .  S
O214       Cr219   1.991       .  S
O215       Cr219   1.963   1_565  S
O215        C216   1.262       .  A
C216       C1009   1.481       .  S
Cr217       O220   1.777       .  S
Cr218       O220   1.776       .  S
Cr219       O220   1.756       .  S
O221       Cr239   2.049       .  S
O221        C229   1.273       .  A
O222       Cr239   1.960       .  S
O222        C223   1.260       .  A
C223        O224   1.269       .  A
C223        C936   1.464       .  S
O224       Cr240   2.021       .  S
O225       Cr240   2.003       .  S
O225        C226   1.262       .  A
C226        O227   1.262       .  A
C226        C950   1.484       .  S
O227       Cr241   1.994       .  S
O228       Cr241   1.966       .  S
O228        C229   1.257       .  A
C229       C1079   1.483       .  S
O230       Cr239   1.988   1_554  S
O230        C238   1.257       .  A
O231       Cr239   2.013   1_554  S
O231        C232   1.268       .  A
C232        O233   1.259   1_554  A
C232        C967   1.486       .  S
O233       Cr240   1.977       .  S
O234       Cr240   2.030       .  S
O234        C235   1.271       .  A
C235        O236   1.259   1_556  A
C235       C1006   1.480   1_556  S
O236       Cr241   1.955   1_554  S
O237       Cr241   2.004   1_554  S
O237        C238   1.263       .  A
C238       C1020   1.470       .  S
Cr239       O242   1.775       .  S
Cr240       O242   1.779       .  S
Cr241       O242   1.756       .  S
O243       Cr261   1.986   1_565  S
O243        C251   1.265       .  A
O244       Cr261   1.978       .  S
O244        C245   1.261       .  A
C245        O246   1.269       .  A
C245        C992   1.497       .  S
O246       Cr262   2.020       .  S
O247       Cr262   1.979       .  S
O247        C248   1.257       .  A
C248        O249   1.254       .  A
C248       C1261   1.462       .  S
O249       Cr263   1.973       .  S
O250       Cr263   2.018   1_565  S
O250        C251   1.269       .  A
C251        C953   1.487       .  S
O252       Cr261   1.998       .  S
O252        C260   1.263       .  A
O253       Cr261   1.983       .  S
O253        C254   1.260       .  A
C254        O255   1.256       .  A
C254       C1191   1.462       .  S
O255       Cr262   1.977       .  S
O256       Cr262   2.011       .  S
O256        C257   1.271       .  A
C257        O258   1.265       .  A
C257        C922   1.489       .  S
O258       Cr263   1.988       .  S
O259       Cr263   1.976       .  S
O259        C260   1.259       .  A
C260       C1093   1.479       .  S
Cr261       O264   1.764       .  S
Cr262       O264   1.778       .  S
Cr263       O264   1.774       .  S
O265       Cr283   1.992       .  S
O265        C273   1.261       .  A
O266       Cr283   1.962       .  S
O266        C267   1.257       .  A
C267        O268   1.269       .  A
C267        C866   1.476       .  S
O268       Cr284   2.033       .  S
O269       Cr284   1.983       .  S
O269        C270   1.266       .  A
C270        O271   1.274       .  A
C270        C852   1.487       .  S
O271       Cr285   2.027       .  S
O272       Cr285   1.998       .  S
O272        C273   1.261       .  A
C273        C880   1.476       .  S
O274       Cr283   1.960   1_655  S
O274        C282   1.257       .  A
O275       Cr283   2.004       .  S
O275        C276   1.263       .  A
C276        O277   1.260       .  A
C276        C897   1.478       .  S
O277       Cr284   2.002       .  S
O278       Cr284   1.984       .  S
O278        C279   1.261       .  A
C279        O280   1.263   1_455  A
C279       C1331   1.478   1_455  S
O280       Cr285   2.001   1_655  S
O281       Cr285   2.042   1_655  S
O281        C282   1.274       .  A
C282        C908   1.496       .  S
Cr283       O286   1.759       .  S
Cr284       O286   1.775       .  S
Cr285       O286   1.770       .  S
O287       Cr305   1.974       .  S
O287        C295   1.262   1_655  A
O288       Cr305   2.016       .  S
O288        C289   1.268       .  A
C289        O290   1.265       .  A
C289        C810   1.481       .  S
O290       Cr306   1.998       .  S
O291       Cr306   1.997       .  S
O291        C292   1.257       .  A
C292        O293   1.257       .  A
C292       C1303   1.479       .  S
O293       Cr307   1.967       .  S
O294       Cr307   2.011   1_455  S
O294        C295   1.266       .  A
C295        C838   1.471       .  S
O296       Cr305   1.996   1_554  S
O296        C304   1.263       .  A
O297       Cr305   1.987   1_554  S
O297        C298   1.260   1_554  A
C298        O299   1.263       .  A
C298        C824   1.482   1_556  S
O299       Cr306   1.996       .  S
O300       Cr306   1.962       .  S
O300        C301   1.262       .  A
C301        O302   1.271       .  A
C301        C981   1.479   1_556  S
O302       Cr307   2.021       .  S
O303       Cr307   1.988   1_554  S
O303        C304   1.260       .  A
C304        C894   1.476       .  S
Cr305       O308   1.766       .  S
Cr306       O308   1.777       .  S
Cr307       O308   1.776       .  S
O309       Cr327   2.041   1_554  S
O309        C317   1.275       .  A
O310       Cr327   1.957   1_554  S
O310        C311   1.258   1_554  A
C311        O312   1.275       .  A
C311       C1177   1.485       .  S
O312       Cr328   2.038       .  S
O313       Cr328   2.017       .  S
O313        C314   1.264       .  A
C314        O315   1.256       .  A
C314        C841   1.478       .  S
O315       Cr329   1.976       .  S
O316       Cr329   1.956   1_554  S
O316        C317   1.259       .  A
C317        C869   1.473       .  S
O318       Cr327   2.000       .  S
O318        C326   1.255       .  A
O319       Cr327   1.997       .  S
O319        C320   1.267       .  A
C320        O321   1.262       .  A
C320        C782   1.488       .  S
O321       Cr328   1.981       .  S
O322       Cr328   2.056       .  S
O322        C323   1.277       .  A
C323        O324   1.257       .  A
C323        C768   1.483       .  S
O324       Cr329   1.948       .  S
O325       Cr329   1.988   1_554  S
O325        C326   1.256   1_554  A
C326        C799   1.469   1_556  S
Cr327       O330   1.767       .  S
Cr328       O330   1.777       .  S
Cr329       O330   1.748       .  S
O331       Cr349   2.017   1_655  S
O331        C339   1.268       .  A
O332       Cr349   1.971       .  S
O332        C333   1.256       .  A
C333        O334   1.262       .  A
C333       C1443   1.480       .  S
O334       Cr350   2.009       .  S
O335       Cr350   1.993       .  S
O335        C336   1.262       .  A
C336        O337   1.266       .  A
C336        C883   1.474       .  S
O337       Cr351   2.003       .  S
O338       Cr351   1.968       .  S
O338        C339   1.260   1_455  A
C339        C740   1.470       .  S
O340       Cr349   1.997   1_556  S
O340        C348   1.263       .  A
O341       Cr349   2.033       .  S
O341        C342   1.273       .  A
C342        O343   1.261       .  A
C342       C1062   1.479       .  S
O343       Cr350   1.960       .  S
O344       Cr350   2.020       .  S
O344        C345   1.266       .  A
C345        O346   1.259       .  A
C345        C796   1.485       .  S
O346       Cr351   1.972       .  S
O347       Cr351   1.990   1_556  S
O347        C348   1.261       .  A
C348        C754   1.478       .  S
Cr349       O352   1.777       .  S
Cr350       O352   1.782       .  S
Cr351       O352   1.760       .  S
O353       Cr371   2.016       .  S
O353        C361   1.268       .  A
O354       Cr371   2.017       .  S
O354        C355   1.273       .  A
C355        O356   1.266       .  A
C355        C712   1.494       .  S
O356       Cr372   1.981       .  S
O357       Cr372   2.012       .  S
O357        C358   1.262       .  A
C358        O359   1.257       .  A
C358        C726   1.472       .  S
O359       Cr373   1.975       .  S
O360       Cr373   1.990       .  S
O360        C361   1.261       .  A
C361        C813   1.485       .  S
O362       Cr371   2.017   1_455  S
O362        C370   1.268       .  A
O363       Cr371   2.017   1_455  S
O363        C364   1.266   1_455  A
C364        O365   1.257       .  A
C364       C1205   1.486   1_655  S
O365       Cr372   1.976       .  S
O366       Cr372   2.004       .  S
O366        C367   1.263       .  A
C367        O368   1.266       .  A
C367        C757   1.483       .  S
O368       Cr373   2.011       .  S
O369       Cr373   1.964   1_455  S
O369        C370   1.260       .  A
C370        C771   1.486       .  S
Cr371       O374   1.777       .  S
Cr372       O374   1.776       .  S
Cr373       O374   1.760       .  S
O375       Cr393   1.959   1_556  S
O375        C383   1.259       .  A
O376       Cr393   1.974       .  S
O376        C377   1.258       .  A
C377        O378   1.264       .  A
C377        C743   1.480       .  S
O378       Cr394   2.011       .  S
O379       Cr394   2.029       .  S
O379        C380   1.271       .  A
C380        O381   1.259       .  A
C380        C964   1.473       .  S
O381       Cr395   1.964       .  S
O382       Cr395   2.035   1_556  S
O382        C383   1.271       .  A
C383        C729   1.482       .  S
O384       Cr393   1.990       .  S
O384        C392   1.257       .  A
O385       Cr393   1.970       .  S
O385        C386   1.264       .  A
C386        O387   1.275       .  A
C386        C911   1.495       .  S
O387       Cr394   2.039       .  S
O388       Cr394   1.980       .  S
O388        C389   1.262       .  A
C389        O390   1.266       .  A
C389        C698   1.488       .  S
O390       Cr395   2.004       .  S
O391       Cr395   1.994       .  S
O391        C392   1.257       .  A
C392        C827   1.463       .  S
Cr393       O396   1.756       .  S
Cr394       O396   1.772       .  S
Cr395       O396   1.771       .  S
O397       Cr415   2.007       .  S
O397        C405   1.265       .  A
O398       Cr415   2.011       .  S
O398        C399   1.266       .  A
C399        O400   1.259       .  A
C399        C701   1.482       .  S
O400       Cr416   1.984       .  S
O401       Cr416   2.015       .  S
O401        C402   1.267       .  A
C402        O403   1.260       .  A
C402        C642   1.494       .  S
O403       Cr417   1.978       .  S
O404       Cr417   1.991       .  S
O404        C405   1.264       .  A
C405        C670   1.476       .  S
O406       Cr415   2.023       .  S
O406        C414   1.268       .  A
O407       Cr415   1.986       .  S
O407        C408   1.265       .  A
C408        O409   1.267       .  A
C408       C1121   1.488       .  S
O409       Cr416   2.001       .  S
O410       Cr416   1.992       .  S
O410        C411   1.258       .  A
C411        O412   1.264       .  A
C411        C656   1.471       .  S
O412       Cr417   1.995       .  S
O413       Cr417   1.983       .  S
O413        C414   1.262       .  A
C414        C687   1.493       .  S
Cr415       O418   1.773       .  S
Cr416       O418   1.772       .  S
Cr417       O418   1.755       .  S
O419       Cr437   1.993       .  S
O419        C427   1.259       .  A
O420       Cr437   1.977       .  S
O420        C421   1.265       .  A
C421        O422   1.272       .  A
C421        C673   1.495       .  S
O422       Cr438   2.031       .  S
O423       Cr438   1.985       .  S
O423        C424   1.264       .  A
C424        O425   1.264       .  A
C424       C1037   1.474       .  S
O425       Cr439   1.998       .  S
O426       Cr439   2.015       .  S
O426        C427   1.262       .  A
C427        C614   1.481       .  S
O428       Cr437   1.976       .  S
O428        C436   1.263       .  A
O429       Cr437   1.977       .  S
O429        C430   1.254       .  A
C430        O431   1.262       .  A
C430        C600   1.484       .  S
O431       Cr438   2.010       .  S
O432       Cr438   2.002       .  S
O432        C433   1.266       .  A
C433        O434   1.263       .  A
C433       C1233   1.476       .  S
O434       Cr439   1.984       .  S
O435       Cr439   2.030       .  S
O435        C436   1.271       .  A
C436        C628   1.483       .  S
Cr437       O440   1.756       .  S
Cr438       O440   1.774       .  S
Cr439       O440   1.776       .  S
O441       Cr459   2.005       .  S
O441        C449   1.265       .  A
O442       Cr459   2.012       .  S
O442        C443   1.271       .  A
C443        O444   1.263       .  A
C443       C1219   1.475       .  S
O444       Cr460   1.971       .  S
O445       Cr460   2.029       .  S
O445        C446   1.268       .  A
C446        O447   1.257       .  A
C446        C617   1.485       .  S
O447       Cr461   1.974       .  S
O448       Cr461   1.976       .  S
O448        C449   1.257       .  A
C449        C575   1.471       .  S
O450       Cr459   2.020       .  S
O450        C458   1.267       .  A
O451       Cr459   2.008       .  S
O451        C452   1.265       .  A
C452        O453   1.264       .  A
C452        C855   1.496       .  S
O453       Cr460   1.997       .  S
O454       Cr460   2.002       .  S
O454        C455   1.261       .  A
C455        O456   1.262       .  A
C455        C684   1.473       .  S
O456       Cr461   1.995       .  S
O457       Cr461   1.963       .  S
O457        C458   1.260       .  A
C458        C586   1.482       .  S
Cr459       O462   1.777       .  S
Cr460       O462   1.774       .  S
Cr461       O462   1.756       .  S
O463       Cr481   1.996       .  S
O463        C471   1.263       .  A
O464       Cr481   1.992       .  S
O464        C465   1.261       .  A
C465        O466   1.263       .  A
C465        C572   1.471       .  S
O466       Cr482   1.996       .  S
O467       Cr482   1.986       .  S
O467        C468   1.262       .  A
C468        O469   1.263       .  A
C468        C785   1.480       .  S
O469       Cr483   1.996       .  S
O470       Cr483   2.015       .  S
O470        C471   1.266       .  A
C471        C544   1.482       .  S
O472       Cr481   1.978       .  S
O472        C480   1.261       .  A
O473       Cr481   1.998       .  S
O473        C474   1.263       .  A
C474        O475   1.262       .  A
C474        C631   1.477       .  S
O475       Cr482   1.997       .  S
O476       Cr482   1.989       .  S
O476        C477   1.264       .  A
C477        O478   1.267       .  A
C477        C939   1.483       .  S
O478       Cr483   1.996       .  S
O479       Cr483   2.009       .  S
O479        C480   1.265       .  A
C480        C558   1.484       .  S
Cr481       O484   1.761       .  S
Cr482       O484   1.773       .  S
Cr483       O484   1.777       .  S
O485       Cr503   2.055       .  S
O485        C493   1.281       .  A
O486       Cr503   1.947       .  S
O486        C487   1.258       .  A
C487        O488   1.273       .  A
C487        C925   1.492       .  S
O488       Cr504   2.037       .  S
O489       Cr504   2.005       .  S
O489        C490   1.257       .  A
C490        O491   1.257       .  A
C490        C547   1.481       .  S
O491       Cr505   1.992       .  S
O492       Cr505   1.952       .  S
O492        C493   1.260       .  A
C493        C530   1.483       .  S
O494       Cr503   2.002       .  S
O494        C502   1.257       .  A
O495       Cr503   2.025       .  S
O495        C496   1.270       .  A
C496        O497   1.258       .  A
C496       C1457   1.490       .  S
O497       Cr504   1.960       .  S
O498       Cr504   2.059       .  S
O498        C499   1.281       .  A
C499        O500   1.260       .  A
C499        C589   1.484       .  S
O500       Cr505   1.944       .  S
O501       Cr505   1.996       .  S
O501        C502   1.257       .  A
C502        C659   1.479       .  S
Cr503       O506   1.770       .  S
Cr504       O506   1.773       .  S
Cr505       O506   1.752       .  S
O507       Cr525   1.974       .  S
O507        C515   1.260       .  A
O508       Cr525   1.971       .  S
O508        C509   1.258       .  A
C509        O510   1.269       .  A
C509        C533   1.477       .  S
O510       Cr526   2.027       .  S
O511       Cr526   1.970       .  S
O511        C512   1.263       .  A
C512        O513   1.274       .  A
C512       C1359   1.490       .  S
O513       Cr527   2.020       .  S
O514       Cr527   2.012       .  S
O514        C515   1.265       .  A
C515        C645   1.479       .  S
O516       Cr525   1.957       .  S
O516        C524   1.258       .  A
O517       Cr525   1.990       .  S
O517        C518   1.260       .  A
C518        O519   1.260       .  A
C518        C561   1.471       .  S
O519       Cr526   2.002       .  S
O520       Cr526   1.995       .  S
O520        C521   1.261       .  A
C521        O522   1.260       .  A
C521        C715   1.470       .  S
O522       Cr527   1.992       .  S
O523       Cr527   2.031       .  S
O523        C524   1.269       .  A
C524        C603   1.480       .  S
Cr525       O528   1.753       .  S
Cr526       O528   1.773       .  S
Cr527       O528   1.779       .  S
C529        C530   1.401       .  A
C529        C534   1.405       .  A
C529        H536   1.081       .  S
C530        C531   1.414       .  A
C531        C532   1.400       .  A
C531        N538   1.430       .  S
C532        C533   1.401       .  A
C532        H537   1.084       .  S
C533        C534   1.415       .  A
C534        N535   1.433       .  S
N535        O539   1.262       .  A
N535        O540   1.261       .  A
N538        O542   1.262       .  A
N538        O541   1.262       .  A
C543        C544   1.400       .  A
C543        C548   1.394       .  A
C543        H550   1.082       .  S
C544        C545   1.416       .  A
C545        C546   1.415       .  A
C545        N552   1.432       .  S
C546        C547   1.405       .  A
C546        H551   1.084       .  S
C547        C548   1.410       .  A
C548        N549   1.433       .  S
N549        O553   1.261       .  A
N549        O554   1.263       .  A
N552        O556   1.263       .  A
N552        O555   1.262       .  A
C557        C558   1.402       .  A
C557        C562   1.401       .  A
C557        H564   1.084       .  S
C558        C559   1.415       .  A
C559        C560   1.402       .  A
C559        N566   1.427       .  S
C560        C561   1.400       .  A
C560        H565   1.084       .  S
C561        C562   1.413       .  A
C562        N563   1.433       .  S
N563        O567   1.263       .  A
N563        O568   1.262       .  A
N566        O570   1.262       .  A
N566        O569   1.261       .  A
C571        C572   1.395       .  A
C571        C576   1.391       .  A
C571        H578   1.084       .  S
C572        C573   1.411       .  A
C573        C574   1.410       .  A
C573        N580   1.430       .  S
C574        C575   1.405       .  A
C574        H579   1.084       .  S
C575        C576   1.408       .  A
C576        N577   1.424       .  S
N577        O581   1.261       .  A
N577        O582   1.262       .  A
N580        O584   1.262       .  A
N580        O583   1.262       .  A
C585        C586   1.410       .  A
C585        C590   1.412       .  A
C585        H592   1.083       .  S
C586        C587   1.411       .  A
C587        C588   1.387       .  A
C587        N594   1.432       .  S
C588        C589   1.405       .  A
C588        H593   1.084       .  S
C589        C590   1.411       .  A
C590        N591   1.428       .  S
N591        O595   1.262       .  A
N591        O596   1.262       .  A
N594        O598   1.261       .  A
N594        O597   1.262       .  A
C599        C600   1.408       .  A
C599        C604   1.411       .  A
C599        H606   1.083       .  S
C600        C601   1.417       .  A
C601        C602   1.386       .  A
C601        N608   1.432       .  S
C602        C603   1.399       .  A
C602        H607   1.085       .  S
C603        C604   1.411       .  A
C604        N605   1.427       .  S
N605        O609   1.262       .  A
N605        O610   1.262       .  A
N608        O612   1.262       .  A
N608        O611   1.262       .  A
C613        C614   1.406       .  A
C613        C618   1.412       .  A
C613        H620   1.081       .  S
C614        C615   1.406       .  A
C615        C616   1.399       .  A
C615        N622   1.427       .  S
C616        C617   1.399       .  A
C616        H621   1.077       .  S
C617        C618   1.408       .  A
C618        N619   1.428       .  S
N619        O623   1.261       .  A
N619        O624   1.262       .  A
N622        O626   1.260       .  A
N622        O625   1.262       .  A
C627        C628   1.402       .  A
C627        C632   1.405       .  A
C627        H634   1.081       .  S
C628        C629   1.410       .  A
C629        C630   1.404       .  A
C629        N636   1.434       .  S
C630        C631   1.404       .  A
C630        H635   1.084       .  S
C631        C632   1.411       .  A
C632        N633   1.431       .  S
N633        O637   1.262       .  A
N633        O638   1.262       .  A
N636        O640   1.261       .  A
N636        O639   1.263       .  A
C641        C642   1.414       .  A
C641        C646   1.409       .  A
C641        H648   1.083       .  S
C642        C643   1.419       .  A
C643        C644   1.396       .  A
C643        N650   1.433       .  S
C644        C645   1.403       .  A
C644        H649   1.086       .  S
C645        C646   1.406       .  A
C646        N647   1.430       .  S
N647        O651   1.262       .  A
N647        O652   1.262       .  A
N650        O654   1.262       .  A
N650        O653   1.262       .  A
C655        C656   1.396       .  A
C655        C660   1.392       .  A
C655        H662   1.085       .  S
C656        C657   1.410       .  A
C657        C658   1.410       .  A
C657        N664   1.427       .  S
C658        C659   1.405       .  A
C658        H663   1.084       .  S
C659        C660   1.411       .  A
C660        N661   1.427       .  S
N661        O665   1.262       .  A
N661        O666   1.262       .  A
N664        O668   1.260       .  A
N664        O667   1.262       .  A
C669        C670   1.397       .  A
C669        C674   1.395       .  A
C669        H676   1.085       .  S
C670        C671   1.408       .  A
C671        C672   1.410       .  A
C671        N678   1.427       .  S
C672        C673   1.412       .  A
C672        H677   1.083       .  S
C673        C674   1.412       .  A
C674        N675   1.422       .  S
N675        O679   1.261       .  A
N675        O680   1.262       .  A
N678        O682   1.260       .  A
N678        O681   1.262       .  A
C683        C684   1.399       .  A
C683        C688   1.398       .  A
C683        H690   1.083       .  S
C684        C685   1.403       .  A
C685        C686   1.408       .  A
C685        N692   1.429       .  S
C686        C687   1.413       .  A
C686        H691   1.083       .  S
C687        C688   1.413       .  A
C688        N689   1.427       .  S
N689        O693   1.262       .  A
N689        O694   1.262       .  A
N692        O696   1.262       .  A
N692        O695   1.260       .  A
C697        C698   1.406       .  A
C697        C702   1.403       .  A
C697        H704   1.084       .  S
C698        C699   1.414       .  A
C699        C700   1.400       .  A
C699        N706   1.429       .  S
C700        C701   1.403       .  A
C700        H705   1.084       .  S
C701        C702   1.412       .  A
C702        N703   1.430       .  S
N703        O707   1.262       .  A
N703        O708   1.262       .  A
N706        O710   1.262       .  A
N706        O709   1.262       .  A
C711        C712   1.411       .  A
C711        C716   1.401       .  A
C711        H718   1.083       .  S
C712        C713   1.418       .  A
C713        C714   1.404       .  A
C713        N720   1.429       .  S
C714        C715   1.400       .  A
C714        H719   1.084       .  S
C715        C716   1.404       .  A
C716        N717   1.430       .  S
N717        O721   1.262       .  A
N717        O722   1.262       .  A
N720        O724   1.262       .  A
N720        O723   1.262       .  A
C725        C726   1.400       .  A
C725        C730   1.408       .  A
C725        H732   1.082       .  S
C726        C727   1.403       .  A
C727        C728   1.398       .  A
C727        N734   1.430       .  S
C728        C729   1.408       .  A
C728        H733   1.084       .  S
C729        C730   1.418       .  A
C730        N731   1.441       .  S
N731        O735   1.262       .  A
N731        O736   1.263       .  A
N734        O738   1.262       .  A
N734        O737   1.262       .  A
C739        C740   1.405       .  A
C739        C744   1.410       .  A
C739        H746   1.083       .  S
C740        C741   1.406       .  A
C741        C742   1.391       .  A
C741        N748   1.431   1_554  S
C742        C743   1.405       .  A
C742        H747   1.085       .  S
C743        C744   1.411       .  A
C744        N745   1.427       .  S
N745        O749   1.262       .  A
N745        O750   1.262       .  A
N748        O752   1.261       .  A
N748        O751   1.262   1_556  A
C753        C754   1.402       .  A
C753        C758   1.405       .  A
C753        H760   1.084       .  S
C754        C755   1.412   1_455  A
C755        C756   1.406       .  A
C755        N762   1.429       .  S
C756        C757   1.403       .  A
C756        H761   1.083       .  S
C757        C758   1.412   1_655  A
C758        N759   1.431       .  S
N759        O763   1.262       .  A
N759        O764   1.262       .  A
N762        O766   1.262       .  A
N762        O765   1.262       .  A
C767        C768   1.405       .  A
C767        C772   1.389       .  A
C767        H774   1.084       .  S
C768        C769   1.409       .  A
C769        C770   1.410       .  A
C769        N776   1.428       .  S
C770        C771   1.411       .  A
C770        H775   1.083       .  S
C771        C772   1.413       .  A
C772        N773   1.432       .  S
N773        O777   1.262       .  A
N773        O778   1.262       .  A
N776        O780   1.261       .  A
N776        O779   1.262       .  A
C781        C782   1.405       .  A
C781        C786   1.396       .  A
C781        H788   1.084       .  S
C782        C783   1.416       .  A
C783        C784   1.403       .  A
C783        N790   1.427       .  S
C784        C785   1.402       .  A
C784        H789   1.084       .  S
C785        C786   1.412       .  A
C786        N787   1.431       .  S
N787        O791   1.262       .  A
N787        O792   1.262       .  A
N790        O794   1.262       .  A
N790        O793   1.262       .  A
C795        C796   1.405   1_556  A
C795        C800   1.401       .  A
C795        H802   1.084       .  S
C796        C797   1.415       .  A
C797        C798   1.401       .  A
C797        N804   1.427       .  S
C798        C799   1.400       .  A
C798        H803   1.084       .  S
C799        C800   1.409   1_554  A
C800        N801   1.432       .  S
N801        O805   1.262       .  A
N801        O806   1.262       .  A
N804        O808   1.262       .  A
N804        O807   1.261       .  A
C809        C810   1.400       .  A
C809        C814   1.402       .  A
C809        H816   1.085       .  S
C810        C811   1.410       .  A
C811        C812   1.412       .  A
C811        N818   1.429       .  S
C812        C813   1.408       .  A
C812        H817   1.084       .  S
C813        C814   1.411       .  A
C814        N815   1.428       .  S
N815        O819   1.262       .  A
N815        O820   1.262       .  A
N818        O822   1.262   1_655  A
N818        O821   1.262       .  A
C823        C824   1.405   1_556  A
C823        C828   1.396       .  A
C823        H830   1.084       .  S
C824        C825   1.412       .  A
C825        C826   1.402       .  A
C825        N832   1.428       .  S
C826        C827   1.402       .  A
C826        H831   1.084       .  S
C827        C828   1.405   1_554  A
C828        N829   1.427       .  S
N829        O833   1.261       .  A
N829        O834   1.262       .  A
N832        O836   1.262       .  A
N832        O835   1.261       .  A
C837        C838   1.406       .  A
C837        C842   1.411       .  A
C837        H844   1.084       .  S
C838        C839   1.404   1_556  A
C839        C840   1.392   1_554  A
C839        N846   1.430       .  S
C840        C841   1.405       .  A
C840        H845   1.085   1_556  S
C841        C842   1.411       .  A
C842        N843   1.428       .  S
N843        O847   1.262       .  A
N843        O848   1.262       .  A
N846        O850   1.262       .  A
N846        O849   1.261       .  A
C851        C852   1.408       .  A
C851        C856   1.412       .  A
C851        H858   1.084       .  S
C852        C853   1.407       .  A
C853        C854   1.399       .  A
C853        N860   1.428       .  S
C854        C855   1.408       .  A
C854        H859   1.084       .  S
C855        C856   1.415       .  A
C856        N857   1.429       .  S
N857        O861   1.262       .  A
N857        O862   1.262       .  A
N860        O864   1.261       .  A
N860        O863   1.262       .  A
C865        C866   1.405       .  A
C865        C870   1.400       .  A
C865        H872   1.084       .  S
C866        C867   1.409       .  A
C867        C868   1.402       .  A
C867        N874   1.429       .  S
C868        C869   1.405       .  A
C868        H873   1.084       .  S
C869        C870   1.407       .  A
C870        N871   1.428       .  S
N871        O875   1.262       .  A
N871        O876   1.262       .  A
N874        O878   1.262       .  A
N874        O877   1.262       .  A
C879        C880   1.404       .  A
C879        C884   1.411       .  A
C879        H886   1.081       .  S
C880        C881   1.409       .  A
C881        C882   1.393       .  A
C881        N888   1.430   1_455  S
C882        C883   1.400       .  A
C882        H887   1.084       .  S
C883        C884   1.414       .  A
C884        N885   1.434       .  S
N885        O889   1.262       .  A
N885        O890   1.263       .  A
N888        O892   1.262       .  A
N888        O891   1.262       .  A
C893        C894   1.401       .  A
C893        C898   1.406       .  A
C893        H900   1.084       .  S
C894        C895   1.411   1_655  A
C895        C896   1.404       .  A
C895        N902   1.430       .  S
C896        C897   1.401       .  A
C896        H901   1.083       .  S
C897        C898   1.413   1_455  A
C898        N899   1.433       .  S
N899        O903   1.262       .  A
N899        O904   1.262       .  A
N902        O906   1.262       .  A
N902        O905   1.262       .  A
C907        C908   1.407       .  A
C907        C912   1.408       .  A
C907        H914   1.083       .  S
C908        C909   1.420       .  A
C909        C910   1.399       .  A
C909        N916   1.433       .  S
C910        C911   1.405       .  A
C910        H915   1.084       .  S
C911        C912   1.414       .  A
C912        N913   1.428       .  S
N913        O917   1.262       .  A
N913        O918   1.262       .  A
N916        O920   1.262       .  A
N916        O919   1.261       .  A
C921        C922   1.411       .  A
C921        C926   1.411       .  A
C921        H928   1.084       .  S
C922        C923   1.411       .  A
C923        C924   1.394       .  A
C923        N930   1.430       .  S
C924        C925   1.407       .  A
C924        H929   1.084       .  S
C925        C926   1.412       .  A
C926        N927   1.428       .  S
N927        O931   1.262       .  A
N927        O932   1.262       .  A
N930        O934   1.262       .  A
N930        O933   1.262       .  A
C935        C936   1.395       .  A
C935        C940   1.394       .  A
C935        H942   1.085       .  S
C936        C937   1.408       .  A
C937        C938   1.405       .  A
C937        N944   1.429       .  S
C938        C939   1.406       .  A
C938        H943   1.084       .  S
C939        C940   1.418       .  A
C940        N941   1.430       .  S
N941        O945   1.262       .  A
N941        O946   1.262       .  A
N944        O948   1.262       .  A
N944        O947   1.262       .  A
C949        C950   1.407       .  A
C949        C954   1.417       .  A
C949        H956   1.083       .  S
C950        C951   1.406       .  A
C951        C952   1.391       .  A
C951        N958   1.427       .  S
C952        C953   1.403       .  A
C952        H957   1.085       .  S
C953        C954   1.419       .  A
C954        N955   1.433       .  S
N955        O959   1.262       .  A
N955        O960   1.263       .  A
N958        O962   1.260       .  A
N958        O961   1.262       .  A
C963        C964   1.400       .  A
C963        C968   1.401       .  A
C963        H970   1.084       .  S
C964        C965   1.408       .  A
C965        C966   1.404       .  A
C965        N972   1.429       .  S
C966        C967   1.407       .  A
C966        H971   1.084       .  S
C967        C968   1.415       .  A
C968        N969   1.429   1_554  S
N969        O973   1.262       .  A
N969        O974   1.262       .  A
N972        O976   1.262       .  A
N972        O975   1.262       .  A
C977        C978   1.407       .  A
C977        C982   1.404       .  A
C977        H984   1.084       .  S
C978        C979   1.415       .  A
C979        C980   1.395       .  A
C979        N986   1.430       .  S
C980        C981   1.402       .  A
C980        H985   1.084       .  S
C981        C982   1.412       .  A
C982        N983   1.429   1_554  S
N983        O987   1.262   1_556  A
N983        O988   1.261       .  A
N986        O990   1.262       .  A
N986        O989   1.262       .  A
C991        C992   1.412       .  A
C991        C996   1.410       .  A
C991        H998   1.082       .  S
C992        C993   1.417       .  A
C993        C994   1.398       .  A
C993       N1000   1.431   1_545  S
C994        C995   1.403       .  A
C994        H999   1.085   1_545  S
C995        C996   1.408       .  A
C996        N997   1.428       .  S
N997       O1001   1.262       .  A
N997       O1002   1.261       .  A
N1000      O1004   1.262       .  A
N1000      O1003   1.262       .  A
C1005      C1006   1.406       .  A
C1005      C1010   1.408       .  A
C1005      H1012   1.084   1_554  S
C1006      C1007   1.413       .  A
C1007      C1008   1.392       .  A
C1007      N1014   1.434       .  S
C1008      C1009   1.403       .  A
C1008      H1013   1.084       .  S
C1009      C1010   1.413       .  A
C1010      N1011   1.428       .  S
N1011      O1015   1.262       .  A
N1011      O1016   1.262   1_554  A
N1014      O1018   1.263   1_554  A
N1014      O1017   1.262       .  A
C1019      C1020   1.403       .  A
C1019      C1024   1.402       .  A
C1019      H1026   1.083       .  S
C1020      C1021   1.410       .  A
C1021      C1022   1.400       .  A
C1021      N1028   1.432       .  S
C1022      C1023   1.400       .  A
C1022      H1027   1.083       .  S
C1023      C1024   1.407       .  A
C1024      N1025   1.429       .  S
N1025      O1029   1.262       .  A
N1025      O1030   1.262       .  A
N1028      O1032   1.262       .  A
N1028      O1031   1.262       .  A
C1033      C1034   1.402       .  A
C1033      C1038   1.402       .  A
C1033      H1040   1.084       .  S
C1034      C1035   1.412       .  A
C1035      C1036   1.399       .  A
C1035      N1042   1.429       .  S
C1036      C1037   1.400       .  A
C1036      H1041   1.084       .  S
C1037      C1038   1.412       .  A
C1038      N1039   1.430       .  S
N1039      O1043   1.262       .  A
N1039      O1044   1.262       .  A
N1042      O1046   1.262       .  A
N1042      O1045   1.262       .  A
C1047      C1048   1.402   1_565  A
C1047      C1052   1.399       .  A
C1047      H1054   1.083       .  S
C1048      C1049   1.404       .  A
C1049      C1050   1.399       .  A
C1049      N1056   1.431       .  S
C1050      C1051   1.408   1_545  A
C1050      H1055   1.083       .  S
C1051      C1052   1.411       .  A
C1052      N1053   1.429       .  S
N1053      O1057   1.262       .  A
N1053      O1058   1.262       .  A
N1056      O1060   1.262       .  A
N1056      O1059   1.262       .  A
C1061      C1062   1.401   1_556  A
C1061      C1066   1.397       .  A
C1061      H1068   1.084       .  S
C1062      C1063   1.409       .  A
C1063      C1064   1.406       .  A
C1063      N1070   1.429       .  S
C1064      C1065   1.411   1_554  A
C1064      H1069   1.083       .  S
C1065      C1066   1.416       .  A
C1066      N1067   1.429       .  S
N1067      O1071   1.262       .  A
N1067      O1072   1.262       .  A
N1070      O1074   1.262       .  A
N1070      O1073   1.262       .  A
C1075      C1076   1.408       .  A
C1075      C1080   1.404       .  A
C1075      H1082   1.084   1_556  S
C1076      C1077   1.407       .  A
C1077      C1078   1.408       .  A
C1077      N1084   1.427       .  S
C1078      C1079   1.407       .  A
C1078      H1083   1.083       .  S
C1079      C1080   1.407       .  A
C1080      N1081   1.429   1_556  S
N1081      O1085   1.261       .  A
N1081      O1086   1.262       .  A
N1084      O1088   1.262       .  A
N1084      O1087   1.260       .  A
C1089      C1090   1.407   1_545  A
C1089      C1094   1.404       .  A
C1089      H1096   1.083       .  S
C1090      C1091   1.403       .  A
C1091      C1092   1.394       .  A
C1091      N1098   1.431       .  S
C1092      C1093   1.407   1_565  A
C1092      H1097   1.084       .  S
C1093      C1094   1.408       .  A
C1094      N1095   1.430       .  S
N1095      O1099   1.262       .  A
N1095      O1100   1.261       .  A
N1098      O1102   1.262       .  A
N1098      O1101   1.262       .  A
C1103      C1104   1.404       .  A
C1103      C1108   1.409       .  A
C1103      H1110   1.084       .  S
C1104      C1105   1.420       .  A
C1105      C1106   1.386       .  A
C1105      N1112   1.430       .  S
C1106      C1107   1.391       .  A
C1106      H1111   1.086       .  S
C1107      C1108   1.409       .  A
C1108      N1109   1.424       .  S
N1109      O1113   1.261       .  A
N1109      O1114   1.261       .  A
N1112      O1116   1.259       .  A
N1112      O1115   1.262       .  A
C1117      C1118   1.400       .  A
C1117      C1122   1.396       .  A
C1117      H1124   1.085       .  S
C1118      C1119   1.408       .  A
C1119      C1120   1.405       .  A
C1119      N1126   1.428       .  S
C1120      C1121   1.408       .  A
C1120      H1125   1.083       .  S
C1121      C1122   1.416       .  A
C1122      N1123   1.430       .  S
N1123      O1127   1.262       .  A
N1123      O1128   1.262       .  A
N1126      O1130   1.261       .  A
N1126      O1129   1.262       .  A
C1131      C1132   1.406       .  A
C1131      C1136   1.411       .  A
C1131      H1138   1.084       .  S
C1132      C1133   1.409       .  A
C1133      C1134   1.399       .  A
C1133      N1140   1.428       .  S
C1134      C1135   1.402       .  A
C1134      H1139   1.085       .  S
C1135      C1136   1.411       .  A
C1136      N1137   1.427       .  S
N1137      O1141   1.262       .  A
N1137      O1142   1.261       .  A
N1140      O1144   1.262       .  A
N1140      O1143   1.261       .  A
C1145      C1146   1.406       .  A
C1145      C1150   1.407       .  A
C1145      H1152   1.083       .  S
C1146      C1147   1.407       .  A
C1147      C1148   1.396       .  A
C1147      N1154   1.426   1_554  S
C1148      C1149   1.402       .  A
C1148      H1153   1.083       .  S
C1149      C1150   1.409       .  A
C1150      N1151   1.429       .  S
N1151      O1155   1.262       .  A
N1151      O1156   1.261       .  A
N1154      O1158   1.262       .  A
N1154      O1157   1.262       .  A
C1159      C1160   1.408   1_556  A
C1159      C1164   1.394       .  A
C1159      H1166   1.084       .  S
C1160      C1161   1.414       .  A
C1161      C1162   1.410   1_554  A
C1161      N1168   1.430       .  S
C1162      C1163   1.408       .  A
C1162      H1167   1.084       .  S
C1163      C1164   1.412       .  A
C1164      N1165   1.431       .  S
N1165      O1169   1.261       .  A
N1165      O1170   1.261       .  A
N1168      O1172   1.262       .  A
N1168      O1171   1.262       .  A
C1173      C1174   1.403       .  A
C1173      C1178   1.398       .  A
C1173      H1180   1.082       .  S
C1174      C1175   1.416   1_554  A
C1175      C1176   1.409       .  A
C1175      N1182   1.427       .  S
C1176      C1177   1.402       .  A
C1176      H1181   1.084       .  S
C1177      C1178   1.414   1_556  A
C1178      N1179   1.430       .  S
N1179      O1183   1.262       .  A
N1179      O1184   1.262   1_554  A
N1182      O1186   1.260       .  A
N1182      O1185   1.261       .  A
C1187      C1188   1.398       .  A
C1187      C1192   1.397       .  A
C1187      H1194   1.080       .  S
C1188      C1189   1.406       .  A
C1189      C1190   1.399       .  A
C1189      N1196   1.426       .  S
C1190      C1191   1.400       .  A
C1190      H1195   1.084       .  S
C1191      C1192   1.407       .  A
C1192      N1193   1.429       .  S
N1193      O1197   1.261       .  A
N1193      O1198   1.261       .  A
N1196      O1200   1.261       .  A
N1196      O1199   1.261       .  A
C1201      C1202   1.407       .  A
C1201      C1206   1.411       .  A
C1201      H1208   1.083       .  S
C1202      C1203   1.402       .  A
C1203      C1204   1.395   1_455  A
C1203      N1210   1.429   1_455  S
C1204      C1205   1.408   1_655  A
C1204      H1209   1.084       .  S
C1205      C1206   1.412       .  A
C1206      N1207   1.429       .  S
N1207      O1211   1.262       .  A
N1207      O1212   1.262       .  A
N1210      O1214   1.262   1_655  A
N1210      O1213   1.261       .  A
C1215      C1216   1.406       .  A
C1215      C1220   1.397       .  A
C1215      H1222   1.084       .  S
C1216      C1217   1.415       .  A
C1217      C1218   1.399       .  A
C1217      N1224   1.429       .  S
C1218      C1219   1.402       .  A
C1218      H1223   1.084       .  S
C1219      C1220   1.409       .  A
C1220      N1221   1.429       .  S
N1221      O1225   1.262       .  A
N1221      O1226   1.262       .  A
N1224      O1228   1.262       .  A
N1224      O1227   1.262       .  A
C1229      C1230   1.407       .  A
C1229      C1234   1.403       .  A
C1229      H1236   1.084       .  S
C1230      C1231   1.417       .  A
C1231      C1232   1.402       .  A
C1231      N1238   1.429       .  S
C1232      C1233   1.400       .  A
C1232      H1237   1.084       .  S
C1233      C1234   1.409       .  A
C1234      N1235   1.429       .  S
N1235      O1239   1.262       .  A
N1235      O1240   1.262       .  A
N1238      O1242   1.261       .  A
N1238      O1241   1.262       .  A
C1243      C1244   1.406       .  A
C1243      C1248   1.395       .  A
C1243      H1250   1.084       .  S
C1244      C1245   1.407       .  A
C1245      C1246   1.401       .  A
C1245      N1252   1.428       .  S
C1246      C1247   1.407       .  A
C1246      H1251   1.084       .  S
C1247      C1248   1.407       .  A
C1248      N1249   1.430       .  S
N1249      O1253   1.261       .  A
N1249      O1254   1.262       .  A
N1252      O1256   1.262       .  A
N1252      O1255   1.262       .  A
C1257      C1258   1.399       .  A
C1257      C1262   1.388       .  A
C1257      H1264   1.084       .  S
C1258      C1259   1.409   1_565  A
C1259      C1260   1.402       .  A
C1259      N1266   1.429       .  S
C1260      C1261   1.403       .  A
C1260      H1265   1.084       .  S
C1261      C1262   1.409   1_545  A
C1262      N1263   1.431       .  S
N1263      O1267   1.262       .  A
N1263      O1268   1.261       .  A
N1266      O1270   1.261       .  A
N1266      O1269   1.262       .  A
C1271      C1272   1.403       .  A
C1271      C1276   1.401       .  A
C1271      H1278   1.084       .  S
C1272      C1273   1.416       .  A
C1273      C1274   1.405       .  A
C1273      N1280   1.429       .  S
C1274      C1275   1.401   1_545  A
C1274      H1279   1.084       .  S
C1275      C1276   1.411   1_565  A
C1276      N1277   1.429   1_545  S
N1277      O1281   1.262       .  A
N1277      O1282   1.262   1_565  A
N1280      O1284   1.261       .  A
N1280      O1283   1.262       .  A
C1285      C1286   1.399       .  A
C1285      C1290   1.401       .  A
C1285      H1292   1.085       .  S
C1286      C1287   1.411       .  A
C1287      C1288   1.410       .  A
C1287      N1294   1.430       .  S
C1288      C1289   1.406       .  A
C1288      H1293   1.082       .  S
C1289      C1290   1.412       .  A
C1290      N1291   1.430       .  S
N1291      O1295   1.262       .  A
N1291      O1296   1.262       .  A
N1294      O1298   1.262       .  A
N1294      O1297   1.262   1_455  A
C1299      C1300   1.404       .  A
C1299      C1304   1.405       .  A
C1299      H1306   1.084       .  S
C1300      C1301   1.422   1_655  A
C1301      C1302   1.388       .  A
C1301      N1308   1.431       .  S
C1302      C1303   1.396   1_455  A
C1302      H1307   1.084       .  S
C1303      C1304   1.416       .  A
C1304      N1305   1.429       .  S
N1305      O1309   1.262       .  A
N1305      O1310   1.261       .  A
N1308      O1312   1.261       .  A
N1308      O1311   1.262       .  A
C1313      C1314   1.406       .  A
C1313      C1318   1.388       .  A
C1313      H1320   1.085       .  S
C1314      C1315   1.414       .  A
C1315      C1316   1.414   1_565  A
C1315      N1322   1.426   1_565  S
C1316      C1317   1.405   1_545  A
C1316      H1321   1.083       .  S
C1317      C1318   1.409       .  A
C1318      N1319   1.432       .  S
N1319      O1323   1.261       .  A
N1319      O1324   1.262       .  A
N1322      O1326   1.261       .  A
N1322      O1325   1.262   1_545  A
C1327      C1328   1.406   1_455  A
C1327      C1332   1.391       .  A
C1327      H1334   1.084       .  S
C1328      C1329   1.417       .  A
C1329      C1330   1.410       .  A
C1329      N1336   1.428       .  S
C1330      C1331   1.405       .  A
C1330      H1335   1.084       .  S
C1331      C1332   1.409   1_655  A
C1332      N1333   1.431       .  S
N1333      O1337   1.262       .  A
N1333      O1338   1.262       .  A
N1336      O1340   1.262       .  A
N1336      O1339   1.262       .  A
C1341      C1342   1.404       .  A
C1341      C1346   1.391       .  A
C1341      H1348   1.097       .  S
C1342      C1343   1.415       .  A
C1343      C1344   1.409       .  A
C1343      N1350   1.433       .  S
C1344      C1345   1.406       .  A
C1344      H1349   1.086       .  S
C1345      C1346   1.410       .  A
C1346      N1347   1.431       .  S
N1347      O1351   1.262       .  A
N1347      O1352   1.262       .  A
N1350      O1354   1.262       .  A
N1350      O1353   1.262       .  A
C1355      C1356   1.401       .  A
C1355      C1360   1.400       .  A
C1355      H1362   1.084       .  S
C1356      C1357   1.410       .  A
C1357      C1358   1.401       .  A
C1357      N1364   1.429       .  S
C1358      C1359   1.408       .  A
C1358      H1363   1.084       .  S
C1359      C1360   1.417       .  A
C1360      N1361   1.429       .  S
N1361      O1365   1.261       .  A
N1361      O1366   1.262       .  A
N1364      O1368   1.262       .  A
N1364      O1367   1.262       .  A
C1369      C1370   1.396       .  A
C1369      C1374   1.392       .  A
C1369      H1376   1.098       .  S
C1370      C1371   1.415   1_655  A
C1371      C1372   1.415       .  A
C1371      N1378   1.429       .  S
C1372      C1373   1.406       .  A
C1372      H1377   1.086       .  S
C1373      C1374   1.411   1_455  A
C1374      N1375   1.428       .  S
N1375      O1379   1.262       .  A
N1375      O1380   1.262       .  A
N1378      O1382   1.262       .  A
N1378      O1381   1.262       .  A
C1383      C1384   1.400       .  A
C1383      C1388   1.397       .  A
C1383      H1390   1.084       .  S
C1384      C1385   1.415       .  A
C1385      C1386   1.407       .  A
C1385      N1392   1.429       .  S
C1386      C1387   1.403       .  A
C1386      H1391   1.084       .  S
C1387      C1388   1.411       .  A
C1388      N1389   1.428       .  S
N1389      O1393   1.262       .  A
N1389      O1394   1.262   1_565  A
N1392      O1396   1.262       .  A
N1392      O1395   1.262       .  A
C1397      C1398   1.403       .  A
C1397      C1402   1.395       .  A
C1397      H1404   1.084       .  S
C1398      C1399   1.415       .  A
C1399      C1400   1.407       .  A
C1399      N1406   1.428       .  S
C1400      C1401   1.402       .  A
C1400      H1405   1.084       .  S
C1401      C1402   1.408       .  A
C1402      N1403   1.429   1_565  S
N1403      O1407   1.262       .  A
N1403      O1408   1.262       .  A
N1406      O1410   1.262       .  A
N1406      O1409   1.261       .  A
C1411      C1412   1.399   1_455  A
C1411      C1416   1.398       .  A
C1411      H1418   1.083       .  S
C1412      C1413   1.412       .  A
C1413      C1414   1.412       .  A
C1413      N1420   1.428       .  S
C1414      C1415   1.405   1_655  A
C1414      H1419   1.084       .  S
C1415      C1416   1.408       .  A
C1416      N1417   1.424       .  S
N1417      O1421   1.262       .  A
N1417      O1422   1.262       .  A
N1420      O1424   1.262       .  A
N1420      O1423   1.262       .  A
C1425      C1426   1.403       .  A
C1425      C1430   1.406       .  A
C1425      H1432   1.084       .  S
C1426      C1427   1.413       .  A
C1427      C1428   1.409       .  A
C1427      N1434   1.428       .  S
C1428      C1429   1.402       .  A
C1428      H1433   1.084       .  S
C1429      C1430   1.412       .  A
C1430      N1431   1.429   1_655  S
N1431      O1435   1.262       .  A
N1431      O1436   1.261       .  A
N1434      O1438   1.262       .  A
N1434      O1437   1.262       .  A
C1439      C1440   1.408       .  A
C1439      C1444   1.395       .  A
C1439      H1446   1.083       .  S
C1440      C1441   1.415   1_655  A
C1441      C1442   1.405       .  A
C1441      N1448   1.427       .  S
C1442      C1443   1.404       .  A
C1442      H1447   1.084       .  S
C1443      C1444   1.409   1_455  A
C1444      N1445   1.430       .  S
N1445      O1449   1.262       .  A
N1445      O1450   1.262       .  A
N1448      O1452   1.262       .  A
N1448      O1451   1.261       .  A
C1453      C1454   1.405       .  A
C1453      C1458   1.409       .  A
C1453      H1460   1.083       .  S
C1454      C1455   1.405       .  A
C1455      C1456   1.396       .  A
C1455      N1462   1.430       .  S
C1456      C1457   1.408       .  A
C1456      H1461   1.084       .  S
C1457      C1458   1.414       .  A
C1458      N1459   1.428       .  S
N1459      O1463   1.262       .  A
N1459      O1464   1.262       .  A
N1462      O1466   1.262       .  A
N1462      O1465   1.262       .  A
C1467      C1468   1.403       .  A
C1467      C1472   1.398       .  A
C1467      H1474   1.084       .  S
C1468      C1469   1.413       .  A
C1469      C1470   1.399       .  A
C1469      N1476   1.427       .  S
C1470      C1471   1.398       .  A
C1470      H1475   1.085       .  S
C1471      C1472   1.408       .  A
C1472      N1473   1.429       .  S
N1473      O1477   1.261       .  A
N1473      O1478   1.262       .  A
N1476      O1480   1.262       .  A
N1476      O1479   1.262       .  A
C1481      C1482   1.401       .  A
C1481      C1486   1.398       .  A
C1481      H1488   1.084       .  S
C1482      C1483   1.410       .  A
C1483      C1484   1.396       .  A
C1483      N1490   1.427   1_545  S
C1484      C1485   1.401       .  A
C1484      H1489   1.084   1_545  S
C1485      C1486   1.415       .  A
C1486      N1487   1.430       .  S
N1487      O1491   1.262       .  A
N1487      O1492   1.262       .  A
N1490      O1494   1.261       .  A
N1490      O1493   1.261       .  A
C1495      C1496   1.402   1_565  A
C1495      C1500   1.409       .  A
C1495      H1502   1.083       .  S
C1496      C1497   1.412       .  A
C1497      C1498   1.388   1_545  A
C1497      N1504   1.431       .  S
C1498      C1499   1.398       .  A
C1498      H1503   1.085       .  S
C1499      C1500   1.412       .  A
C1500      N1501   1.426       .  S
N1501      O1505   1.262       .  A
N1501      O1506   1.261       .  A
N1504      O1508   1.262   1_545  A
N1504      O1507   1.262       .  A
C1509      C1510   1.405       .  A
C1509      C1514   1.397       .  A
C1509      H1516   1.084       .  S
C1510      C1511   1.412       .  A
C1511      C1512   1.393       .  A
C1511      N1518   1.430   1_565  S
C1512      C1513   1.405       .  A
C1512      H1517   1.084       .  S
C1513      C1514   1.409       .  A
C1514      N1515   1.426       .  S
N1515      O1519   1.262       .  A
N1515      O1520   1.261       .  A
N1518      O1522   1.262       .  A
N1518      O1521   1.262   1_545  A
C1523      C1524   1.397       .  A
C1523      C1528   1.388       .  A
C1523      H1530   1.125       .  S
C1524      C1525   1.416       .  A
C1525      C1526   1.410       .  A
C1525      N1532   1.430       .  S
C1526      C1527   1.403       .  A
C1526      H1531   1.092       .  S
C1527      C1528   1.406       .  A
C1528      N1529   1.432       .  S
N1529      O1533   1.261       .  A
N1529      O1534   1.263       .  A
N1532      O1536   1.262       .  A
N1532      O1535   1.262       .  A
