geometry optimzed in LAMMPS
_audit_creation_date              2020-12-01 
_audit_creation_method            'lammps2cif' 
_symmetry_space_group_name_H-M    'P1' 
_symmetry_Int_Tables_number       1 
_symmetry_cell_setting            triclinic 
loop_ 
_symmetry_equiv_pos_as_xyz 
  x,y,z 
_cell_length_a                    57.0387086 
_cell_length_b                    27.95583685196653 
_cell_length_c                    37.055969784799274 
_cell_angle_alpha                 89.96579877036847 
_cell_angle_beta                  89.86794427538598 
_cell_angle_gamma                 90.02221847681065 
loop_ 
_atom_site_label 
_atom_site_type_symbol 
_atom_site_fract_x 
_atom_site_fract_y 
_atom_site_fract_z 
_atom_site_charge 
N1          N  0.14551596  0.06830606  0.80403678    -0.28100
N2          N  0.16565515  0.04998988  0.79303219    -0.35900
C3          C  0.18303575  0.06741178  0.81365493     0.00300
C4          C  0.17341081  0.09838638  0.83887792     0.06300
C5          C  0.14955290  0.09799471  0.83185538    -0.06800
H6          H  0.20133060  0.05826915  0.81027447     0.06900
H7          H  0.13596602  0.11695917  0.84636353     0.08100
Cu8        Cu  0.16865245  0.00188396  0.75073626     0.44200
Cu9        Cu  0.11316785  0.04986975  0.78274694     0.42000
Cu10       Cu  0.11358801  0.95352814  0.71864880     0.43900
N11         N  0.16598589  0.95480377  0.70776185    -0.35500
N12         N  0.14588170  0.93702213  0.69628914    -0.29700
C13         C  0.15000803  0.90801440  0.66809974    -0.05800
C14         C  0.17393213  0.90733392  0.66135920     0.06400
C15         C  0.18346963  0.93758239  0.68713238     0.00200
H16         H  0.13643801  0.88928004  0.65348086     0.07800
H17         H  0.20176809  0.94625691  0.69098452     0.06900
N18         N  0.08323821  0.98004536  0.74192492    -0.36900
N19         N  0.08294004  0.01729115  0.76386239    -0.29100
C20         C  0.06059634  0.02721525  0.77283656    -0.04300
C21         C  0.04620398  0.99409546  0.75614480     0.04300
C22         C  0.06115599  0.96468050  0.73683961     0.02400
H23         H  0.05528314  0.05572337  0.79080675     0.07500
H24         H  0.05631887  0.93493623  0.71973712     0.06300
N25         N  0.84628926  0.90441285  0.80352303    -0.28100
N26         N  0.82610153  0.92190291  0.79209416    -0.35900
C27         C  0.80867859  0.90384094  0.81245107     0.00300
C28         C  0.81834246  0.87342551  0.83797756     0.06300
C29         C  0.84225439  0.87471064  0.83136631    -0.06800
H30         H  0.79035292  0.91250352  0.80888234     0.06900
H31         H  0.85588856  0.85660527  0.84631009     0.08100
Cu32       Cu  0.82305444  0.97082062  0.75027406     0.44200
Cu33       Cu  0.87868974  0.92435941  0.78322157     0.42000
Cu34       Cu  0.87759498  0.02341259  0.72084387     0.43900
N35         N  0.82538789  0.02012264  0.70858945    -0.35500
N36         N  0.84535373  0.03963550  0.69803477    -0.29700
C37         C  0.84113648  0.06933874  0.67025315    -0.05800
C38         C  0.81730033  0.06860403  0.66281385     0.06400
C39         C  0.80791756  0.03687903  0.68780332     0.00200
H40         H  0.85460140  0.08925301  0.65618574     0.07800
H41         H  0.78973985  0.02662354  0.69085112     0.06900
N42         N  0.90810128  0.99648045  0.74352891    -0.36900
N43         N  0.90861188  0.95848434  0.76475625    -0.29100
C44         C  0.93100818  0.94853130  0.77321087    -0.04300
C45         C  0.94525926  0.98233925  0.75690206     0.04300
C46         C  0.93013460  0.01223246  0.73838207     0.02400
H47         H  0.93645097  0.91940829  0.79050449     0.07500
H48         H  0.93482451  0.04252458  0.72167775     0.06300
O49         O  0.27648870  0.73801826  0.54008644    -0.73700
O50         O  0.24306802  0.81240065  0.46299698    -0.74700
O51         O  0.24287406  0.81317461  0.53982808    -0.63300
O52         O  0.27671028  0.73754315  0.46380330    -0.71700
O53         O  0.24801406  0.68403065  0.46396431    -0.71300
O54         O  0.21405110  0.75992994  0.53980922    -0.62600
O55         O  0.21440420  0.75879826  0.46351561    -0.75100
O56         O  0.24761613  0.68487400  0.54058604    -0.73800
Cu57       Cu  0.26075982  0.77721084  0.50170608     1.04600
Cu58       Cu  0.23002250  0.72007994  0.50200293     1.04300
C59         C  0.26743009  0.69941540  0.55229815     0.92500
C60         C  0.22346660  0.79713483  0.45090917     0.91600
C61         C  0.22307598  0.79862916  0.55179145     0.83700
C62         C  0.26778788  0.69868943  0.45193564     0.90000
N63         N  0.34555812  0.55375129  0.69071867    -0.28100
N64         N  0.32545567  0.54350012  0.70678250    -0.35900
C65         C  0.30781490  0.56316230  0.68789613     0.00300
C66         C  0.31724539  0.58737964  0.65864015     0.06300
C67         C  0.34124467  0.58057455  0.66134849    -0.06800
H68         H  0.28953249  0.56101101  0.69555084     0.06900
H69         H  0.35466198  0.59413552  0.64337961     0.08100
Cu70       Cu  0.32281550  0.50509127  0.75444487     0.44200
Cu71       Cu  0.37809131  0.53223614  0.70979064     0.42000
Cu72       Cu  0.37791219  0.47014047  0.79499721     0.43900
N73         N  0.32526928  0.46480254  0.80121433    -0.35500
N74         N  0.34540261  0.45160102  0.81569941    -0.29700
C75         C  0.34108176  0.42346276  0.84436162    -0.05800
C76         C  0.31702854  0.41880725  0.84827728     0.06400
C77         C  0.30757497  0.44573563  0.82047430     0.00200
H78         H  0.35454143  0.40729975  0.86086634     0.07800
H79         H  0.28922471  0.44984515  0.81385943     0.06900
N80         N  0.40826904  0.48834588  0.76747143    -0.36900
N81         N  0.40839876  0.50983007  0.73570303    -0.29100
C82         C  0.43072380  0.51462132  0.72442664    -0.04300
C83         C  0.44537817  0.49552227  0.75052691     0.04300
C84         C  0.43046751  0.47930231  0.77744910     0.02400
H85         H  0.43586902  0.53127709  0.69926971     0.07500
H86         H  0.43530956  0.46127914  0.80217066     0.06300
N87         N  0.64584236  0.41695877  0.69058442    -0.28100
N88         N  0.66600937  0.42786675  0.70608633    -0.35900
C89         C  0.68356599  0.40745020  0.68734817     0.00300
C90         C  0.67402919  0.38214704  0.65877238     0.06300
C91         C  0.65004405  0.38899956  0.66177286    -0.06800
H92         H  0.70189860  0.41030128  0.69443715     0.06900
H93         H  0.63657305  0.37516435  0.64412898     0.08100
Cu94       Cu  0.66907358  0.46918503  0.75237681     0.44200
Cu95       Cu  0.61334218  0.44022229  0.70880729     0.42000
Cu96       Cu  0.61440218  0.50820429  0.79134548     0.43900
N97         N  0.66697585  0.51171953  0.79816109    -0.35500
N98         N  0.64689034  0.52633480  0.81212847    -0.29700
C99         C  0.65128492  0.55481983  0.84052557    -0.05800
C100        C  0.67535582  0.55825783  0.84485554     0.06400
C101        C  0.68472387  0.53025178  0.81750371     0.00200
H102        H  0.63786117  0.57175294  0.85673747     0.07800
H103        H  0.70307877  0.52469260  0.81143380     0.06900
N104        N  0.58382059  0.48962689  0.76477397    -0.36900
N105        N  0.58333328  0.46609017  0.73386869    -0.29100
C106        C  0.56090096  0.46146130  0.72317742    -0.04300
C107        C  0.54658997  0.48268191  0.74886241     0.04300
C108        C  0.56176477  0.50005520  0.77484290     0.02400
H109        H  0.55542107  0.44320694  0.69888237     0.07500
H110        H  0.55717580  0.51953999  0.79906113     0.06300
O111        O  0.75049205  0.78449226  0.03908447    -0.73700
O112        O  0.71656699  0.70911755  0.96304806    -0.74700
O113        O  0.71649531  0.71038983  0.03937767    -0.63300
O114        O  0.75044566  0.78354831  0.96239000    -0.71700
O115        O  0.77898734  0.72973223  0.96282192    -0.71300
O116        O  0.74489706  0.65627529  0.04009774    -0.62600
O117        O  0.74509014  0.65526393  0.96332735    -0.75100
O118        O  0.77891618  0.73042170  0.03925444    -0.73800
Cu119      Cu  0.73253346  0.74879120  0.00094780     1.04600
Cu120      Cu  0.76296472  0.69104687  0.00137386     1.04300
C121        C  0.77007709  0.76927482  0.05127708     0.92500
C122        C  0.72541502  0.67010348  0.95126713     0.91600
C123        C  0.72524012  0.67177072  0.05194537     0.83700
C124        C  0.77007942  0.76830100  0.95036908     0.90000
N125        N  0.34594464  0.55567578  0.31086277    -0.28100
N126        N  0.32582362  0.53877747  0.29870614    -0.35900
C127        C  0.30818538  0.55773671  0.31815381     0.00300
C128        C  0.31760993  0.58831019  0.34380846     0.06300
C129        C  0.34164870  0.58606126  0.33822406    -0.06800
H130        H  0.28984914  0.54996971  0.31365770     0.06900
H131        H  0.35514072  0.60434644  0.35334381     0.08100
Cu132      Cu  0.32340453  0.49080977  0.25608103     0.44200
Cu133      Cu  0.37835956  0.53496534  0.29061531     0.42000
Cu134      Cu  0.37830748  0.44279679  0.22179746     0.43900
N135        N  0.32577041  0.44388082  0.21277090    -0.35500
N136        N  0.34571150  0.42576509  0.20075496    -0.29700
C137        C  0.34123476  0.39717364  0.17243235    -0.05800
C138        C  0.31728611  0.39738277  0.16606308     0.06400
C139        C  0.30808698  0.42748946  0.19225414     0.00200
H140        H  0.35458594  0.37861418  0.15712532     0.07800
H141        H  0.28987631  0.43685784  0.19628555     0.06900
N142        N  0.40855584  0.47076688  0.24441809    -0.36900
N143        N  0.40859021  0.50564190  0.26851419    -0.29100
C144        C  0.43090234  0.51699519  0.27650902    -0.04300
C145        C  0.44558507  0.48745987  0.25681484     0.04300
C146        C  0.43083025  0.45852560  0.23683116     0.02400
H147        H  0.43603419  0.54410387  0.29575985     0.07500
H148        H  0.43589826  0.43112391  0.21774487     0.06300
N149        N  0.64671861  0.54180249  0.19946800    -0.28100
N150        N  0.66668786  0.52411876  0.21153596    -0.35900
C151        C  0.68436805  0.54013781  0.19071715     0.00300
C152        C  0.67511748  0.56952651  0.16415872     0.06300
C153        C  0.65114670  0.56965374  0.17066592    -0.06800
H154        H  0.70259716  0.53109265  0.19485130     0.06900
H155        H  0.63776304  0.58794152  0.15532782     0.08100
Cu156      Cu  0.66875175  0.47801278  0.25511272     0.44200
Cu157      Cu  0.61427015  0.52571297  0.22187703     0.42000
Cu158      Cu  0.61331316  0.43121659  0.28856203     0.43900
N159        N  0.66584425  0.42918650  0.29687037    -0.35500
N160        N  0.64575657  0.41118985  0.30843123    -0.29700
C161        C  0.65004850  0.38046550  0.33553172    -0.05800
C162        C  0.67401723  0.37922665  0.34148206     0.06400
C163        C  0.68343790  0.41061664  0.31640729     0.00200
H164        H  0.63659707  0.36144225  0.35033509     0.07800
H165        H  0.70173984  0.41927894  0.31239185     0.06900
N166        N  0.58338885  0.46317712  0.26821320    -0.36900
N167        N  0.58377511  0.49940331  0.24526161    -0.29100
C168        C  0.56162978  0.51337130  0.23865217    -0.04300
C169        C  0.54662245  0.48402146  0.25795322     0.04300
C170        C  0.56099293  0.45252909  0.27631072     0.02400
H171        H  0.55679469  0.54179903  0.22030425     0.07500
H172        H  0.55559468  0.42429029  0.29449963     0.06300
O173        O  0.74327055  0.28632374  0.46214769    -0.73700
O174        O  0.77721209  0.21236017  0.53869439    -0.74700
O175        O  0.77717825  0.21216104  0.46223555    -0.63300
O176        O  0.74329805  0.28664515  0.53874070    -0.76900
O177        O  0.71463893  0.23303161  0.53862932    -0.71300
O178        O  0.74876549  0.15802198  0.46235492    -0.62600
O179        O  0.74863516  0.15858729  0.53925498    -0.75100
O180        O  0.71484869  0.23219341  0.46229733    -0.73800
Cu181      Cu  0.76122419  0.25123383  0.50044854     1.04600
Cu182      Cu  0.73074890  0.19353364  0.50065550     1.04300
C183        C  0.72366209  0.27102767  0.45013421     0.92500
C184        C  0.76829400  0.17378361  0.55117447     0.91600
C185        C  0.76834809  0.17337003  0.45009428     0.83700
C186        C  0.72354098  0.27182856  0.55066716     0.90000
O187        O  0.24774715  0.31378631  0.04114342    -0.73700
O188        O  0.21327567  0.24263060  0.96310889    -0.74700
O189        O  0.21352537  0.24017143  0.03959749    -0.63300
O190        O  0.24730556  0.31694387  0.96449822    -0.71700
O191        O  0.27590059  0.26325344  0.96325925    -0.71300
O192        O  0.24177393  0.18575519  0.03812824    -0.62600
O193        O  0.24187211  0.18898739  0.96157849    -0.75100
O194        O  0.27599499  0.25937729  0.03953544    -0.73800
Cu195      Cu  0.22947886  0.28027586  0.00210398     1.04600
Cu196      Cu  0.25984999  0.22243786  0.00053425     1.04300
C197        C  0.26733464  0.29771074  0.05273567     0.92500
C198        C  0.22216465  0.20434767  0.95006429     0.91600
C199        C  0.22227192  0.20085817  0.05084501     0.83700
C200        C  0.26703073  0.30260965  0.95220858     0.90000
N201        N  0.14597905  0.06088849  0.19546282    -0.28100
N202        N  0.16623031  0.04308884  0.20639558    -0.35900
C203        C  0.18357026  0.06155458  0.18608978     0.00300
C204        C  0.17381010  0.09266893  0.16121723     0.06300
C205        C  0.14993091  0.09140805  0.16805569    -0.06800
H206        H  0.20193056  0.05292510  0.18932653     0.06900
H207        H  0.13631217  0.11020977  0.15356202     0.08100
Cu208      Cu  0.16961983  0.99389032  0.24788754     0.44200
Cu209      Cu  0.11364585  0.04071403  0.21629216     0.42000
Cu210      Cu  0.11491193  0.94488827  0.28083167     0.43900
N211        N  0.16742694  0.94512319  0.28987392    -0.35500
N212        N  0.14739145  0.92713745  0.30159610    -0.29700
C213        C  0.15163330  0.89804860  0.32966081    -0.05800
C214        C  0.17555366  0.89762571  0.33614554     0.06400
C215        C  0.18500370  0.92792869  0.31024153     0.00200
H216        H  0.13809797  0.87978374  0.34480147     0.07800
H217        H  0.20324800  0.93729169  0.30654491     0.06900
N218        N  0.08422639  0.97196493  0.25934481    -0.36900
N219        N  0.08364063  0.00871971  0.23692983    -0.29100
C220        C  0.06115557  0.01904929  0.22928406    -0.04300
C221        C  0.04695694  0.98676814  0.24742494     0.04300
C222        C  0.06219328  0.95738634  0.26614362     0.02400
H223        H  0.05559587  0.04731325  0.21128593     0.07500
H224        H  0.05761176  0.92814852  0.28395477     0.06300
N225        N  0.84572369  0.03927935  0.30346410    -0.28100
N226        N  0.82575839  0.02042959  0.29240116    -0.35900
C227        C  0.80815735  0.03754649  0.31286309     0.00300
C228        C  0.81747576  0.06879586  0.33813885     0.06300
C229        C  0.84138663  0.06893109  0.33121389    -0.06800
H230        H  0.78995147  0.02776253  0.30948578     0.06900
H231        H  0.85482455  0.08818814  0.34574129     0.08100
Cu232      Cu  0.82362083  0.97129116  0.25067100     0.44200
Cu233      Cu  0.87815045  0.02176518  0.28186218     0.42000
Cu234      Cu  0.87923425  0.92490897  0.21753687     0.43900
N235        N  0.82666262  0.92275788  0.20865020    -0.35500
N236        N  0.84684578  0.90545075  0.19691409    -0.29700
C237        C  0.84274626  0.87582110  0.16907549    -0.05800
C238        C  0.81880013  0.87444520  0.16282362     0.06400
C239        C  0.80919445  0.90469034  0.18853439     0.00200
H240        H  0.85633188  0.85768308  0.15396873     0.07800
H241        H  0.79086470  0.91315847  0.19243084     0.06900
N242        N  0.90920708  0.95625726  0.23845094    -0.36900
N243        N  0.90874084  0.99340513  0.26049928    -0.29100
C244        C  0.93084684  0.00751927  0.26716740    -0.04300
C245        C  0.94595119  0.97738838  0.24881260     0.04300
C246        C  0.93165334  0.94516713  0.23100634     0.02400
H247        H  0.93557116  0.03707252  0.28452990     0.07500
H248        H  0.93712547  0.91660465  0.21319729     0.06300
C249        C  0.00963218  0.93991679  0.24922452    -0.14100
C250        C  0.02110630  0.98430504  0.24719022     0.08000
C251        C  0.00770418  0.02633485  0.24535761    -0.14100
C252        C  0.98322352  0.02407550  0.24635313    -0.14100
C253        C  0.97176926  0.97968419  0.24800879     0.08000
C254        C  0.98514017  0.93758977  0.24904693    -0.14100
H255        H  0.01961026  0.90701284  0.25046971     0.12000
H256        H  0.01616815  0.06096865  0.24394684     0.12000
H257        H  0.97321846  0.05696456  0.24533380     0.12000
H258        H  0.97663464  0.90299102  0.25045207     0.12000
C259        C  0.21953704  0.13056759  0.09264084    -0.14100
C260        C  0.20977621  0.17291984  0.07885318     0.08000
C261        C  0.18802078  0.18855927  0.09231279    -0.14100
C262        C  0.17628219  0.16236521  0.11892722    -0.14100
C263        C  0.18614750  0.12024627  0.13287828     0.08000
C264        C  0.20789079  0.10462403  0.11948502    -0.14100
H265        H  0.23623545  0.11750124  0.08279248     0.12000
H266        H  0.18004183  0.22110227  0.08231765     0.12000
H267        H  0.15963955  0.17548931  0.12892818     0.12000
H268        H  0.21580831  0.07201226  0.12942401     0.12000
C269        C  0.78184005  0.08271495  0.37677294    -0.14100
C270        C  0.80482184  0.09543808  0.36682649     0.08000
C271        C  0.81567461  0.13384810  0.38467594    -0.14100
C272        C  0.80382194  0.15906576  0.41165823    -0.14100
C273        C  0.78087822  0.14630555  0.42163294     0.08000
C274        C  0.77003174  0.10776316  0.40396396    -0.14100
H275        H  0.77298762  0.05311226  0.36385981     0.12000
H276        H  0.83326293  0.14494997  0.37759938     0.12000
H277        H  0.81268558  0.18856709  0.42475878     0.12000
H278        H  0.75234999  0.09708242  0.41100051     0.12000
C279        C  0.67643421  0.31083182  0.38500689    -0.14100
C280        C  0.68675775  0.35135202  0.36913830     0.08000
C281        C  0.70934904  0.36514247  0.38002585    -0.14100
C282        C  0.72132923  0.33909060  0.40633410    -0.14100
C283        C  0.71103699  0.29848832  0.42214291     0.08000
C284        C  0.68848187  0.28456509  0.41113438    -0.14100
H285        H  0.65913894  0.29903306  0.37700334     0.12000
H286        H  0.71770598  0.39646156  0.36861846     0.12000
H287        H  0.73866719  0.35078880  0.41427319     0.12000
H288        H  0.68006648  0.25344734  0.42281143     0.12000
C289        C  0.31487399  0.33320425  0.11889317    -0.14100
C290        C  0.30444611  0.37185267  0.13709062     0.08000
C291        C  0.28168910  0.38597503  0.12721485    -0.14100
C292        C  0.26968308  0.36213220  0.09970002    -0.14100
C293        C  0.28008880  0.32338594  0.08162842     0.08000
C294        C  0.30281061  0.30915414  0.09157641    -0.14100
H295        H  0.33227912  0.32107149  0.12596336     0.12000
H296        H  0.27318981  0.41582995  0.14040936     0.12000
H297        H  0.25219871  0.37395807  0.09269367     0.12000
H298        H  0.31133642  0.27942375  0.07819624     0.12000
C299        C  0.48421571  0.52949605  0.25949589    -0.14100
C300        C  0.47143868  0.48666750  0.25725167     0.08000
C301        C  0.48352762  0.44301133  0.25541115    -0.14100
C302        C  0.50802237  0.44213733  0.25637688    -0.14100
C303        C  0.52079431  0.48499138  0.25793261     0.08000
C304        C  0.50873603  0.52870416  0.25919432    -0.14100
H305        H  0.47522967  0.56357316  0.26078665     0.12000
H306        H  0.47401006  0.40955054  0.25383992     0.12000
H307        H  0.51701374  0.40805512  0.25520283     0.12000
H308        H  0.51829299  0.56214183  0.26051409     0.12000
C309        C  0.77181279  0.83561039  0.09670788    -0.14100
C310        C  0.78257197  0.79651301  0.07957762     0.08000
C311        C  0.80534622  0.78332064  0.09000891    -0.14100
C312        C  0.81710952  0.80868145  0.11693969    -0.14100
C313        C  0.80630672  0.84759820  0.13424451     0.08000
C314        C  0.78351350  0.86074743  0.12385261    -0.14100
H315        H  0.75427614  0.84665463  0.08929704     0.12000
H316        H  0.81413028  0.75336281  0.07733445     0.12000
H317        H  0.83456538  0.79733902  0.12445393     0.12000
H318        H  0.77475342  0.89081416  0.13635591     0.12000
C319        C  0.72316473  0.60702437  0.09880338    -0.14100
C320        C  0.71245638  0.64508486  0.08035844     0.08000
C321        C  0.68935386  0.65775052  0.08946416    -0.14100
C322        C  0.67723351  0.63302063  0.11643881    -0.14100
C323        C  0.68796954  0.59522748  0.13516847     0.08000
C324        C  0.71108570  0.58248321  0.12601922    -0.14100
H325        H  0.74095075  0.59640466  0.09240265     0.12000
H326        H  0.68057682  0.68684079  0.07570932     0.12000
H327        H  0.65954625  0.64410430  0.12288604     0.12000
H328        H  0.71984439  0.55331008  0.13963489     0.12000
C329        C  0.71040218  0.36315545  0.62351378    -0.14100
C330        C  0.68669811  0.35382673  0.63114683     0.08000
C331        C  0.67521652  0.31720850  0.61214985    -0.14100
C332        C  0.68722579  0.29029903  0.58623674    -0.14100
C333        C  0.71089214  0.29985103  0.57843922     0.08000
C334        C  0.72232622  0.33667217  0.59727563    -0.14100
H335        H  0.71969432  0.39137653  0.63744569     0.12000
H336        H  0.65701781  0.30887092  0.61759718     0.12000
H337        H  0.67791469  0.26224204  0.57210934     0.12000
H338        H  0.74055837  0.34488182  0.59188765     0.12000
C339        C  0.67729636  0.62569225  0.88934623    -0.14100
C340        C  0.68821655  0.58688050  0.87205071     0.08000
C341        C  0.71154427  0.57585204  0.88086274    -0.14100
C342        C  0.72362910  0.60283823  0.90658603    -0.14100
C343        C  0.71272521  0.64176276  0.92377427     0.08000
C344        C  0.68945211  0.65298304  0.91477012    -0.14100
H345        H  0.65942613  0.63546236  0.88295192     0.12000
H346        H  0.72040469  0.54597921  0.86824093     0.12000
H347        H  0.74154545  0.59325980  0.91294013     0.12000
H348        H  0.68053856  0.68268785  0.92757017     0.12000
C349        C  0.28073433  0.39916399  0.88350418    -0.14100
C350        C  0.30425562  0.38929852  0.87504493     0.08000
C351        C  0.31540188  0.35058283  0.89205388    -0.14100
C352        C  0.30323667  0.32210073  0.91679797    -0.14100
C353        C  0.27974522  0.33207525  0.92538446     0.08000
C354        C  0.26864216  0.37101482  0.90856971    -0.14100
H355        H  0.27171905  0.42896155  0.87107017     0.12000
H356        H  0.33344038  0.34175204  0.88588428     0.12000
H357        H  0.31229954  0.29246479  0.92940224     0.12000
H358        H  0.25055810  0.37966397  0.91467330     0.12000
C359        C  0.48395134  0.48991580  0.78228157    -0.14100
C360        C  0.47129963  0.49252374  0.74986537     0.08000
C361        C  0.48362090  0.49182386  0.71697198    -0.14100
C362        C  0.50809434  0.48798847  0.71655108    -0.14100
C363        C  0.52070566  0.48584160  0.74902004     0.08000
C364        C  0.50840106  0.48706238  0.78186347    -0.14100
H365        H  0.47498707  0.49070062  0.80805278     0.12000
H366        H  0.47433972  0.49347918  0.69155534     0.12000
H367        H  0.51717044  0.48740286  0.69085886     0.12000
H368        H  0.51766159  0.48514780  0.80729466     0.12000
C369        C  0.18819478  0.81109605  0.41240867    -0.14100
C370        C  0.21122480  0.82350283  0.42192874     0.08000
C371        C  0.22251107  0.86052770  0.40301087    -0.14100
C372        C  0.21104256  0.88437742  0.37494944    -0.14100
C373        C  0.18797706  0.87196568  0.36544169     0.08000
C374        C  0.17669662  0.83508813  0.38456091    -0.14100
H375        H  0.17900737  0.78273518  0.42647665     0.12000
H376        H  0.24028599  0.87081999  0.40967482     0.12000
H377        H  0.22021329  0.91282877  0.36103431     0.12000
H378        H  0.15903226  0.82423842  0.37786644     0.12000
C379        C  0.30383333  0.68014923  0.58700591    -0.14100
C380        C  0.28007705  0.67106781  0.57977325     0.08000
C381        C  0.26866295  0.63406377  0.59855200    -0.14100
C382        C  0.28071290  0.60696722  0.62423135    -0.14100
C383        C  0.30450326  0.61588851  0.63131295     0.08000
C384        C  0.31595731  0.65263875  0.61233107    -0.14100
H385        H  0.31313783  0.70827475  0.57285340     0.12000
H386        H  0.25037173  0.62615855  0.59352415     0.12000
H387        H  0.27145154  0.57865398  0.63820472     0.12000
H388        H  0.33421816  0.66067659  0.61739028     0.12000
C389        C  0.26961040  0.63161497  0.40707278    -0.14100
C390        C  0.28048679  0.67050591  0.42424744     0.08000
C391        C  0.30368426  0.68211124  0.41480535    -0.14100
C392        C  0.31574433  0.65536868  0.38883698    -0.14100
C393        C  0.30483084  0.61662651  0.37147337     0.08000
C394        C  0.28160486  0.60512135  0.38087981    -0.14100
H395        H  0.25176390  0.62171240  0.41375990     0.12000
H396        H  0.31259413  0.71179217  0.42759872     0.12000
H397        H  0.33353952  0.66548827  0.38212774     0.12000
H398        H  0.27271312  0.57527432  0.36834872     0.12000
C399        C  0.78167367  0.08303023  0.62445135    -0.14100
C400        C  0.80471461  0.09542664  0.63415683     0.08000
C401        C  0.81564033  0.13374914  0.61616532    -0.14100
C402        C  0.80380743  0.15915578  0.58929722    -0.14100
C403        C  0.78080604  0.14669533  0.57959096     0.08000
C404        C  0.76988822  0.10826865  0.59740273    -0.14100
H405        H  0.77273353  0.05354482  0.63745754     0.12000
H406        H  0.83327533  0.14462435  0.62301787     0.12000
H407        H  0.81273227  0.18854926  0.57606574     0.12000
H408        H  0.75216502  0.09779404  0.59057358     0.12000
C409        C  0.78307929  0.85917743  0.87710480    -0.14100
C410        C  0.80597862  0.84657154  0.86678476     0.08000
C411        C  0.81701943  0.80817409  0.88438507    -0.14100
C412        C  0.80537533  0.78276207  0.91151370    -0.14100
C413        C  0.78248547  0.79537873  0.92181284     0.08000
C414        C  0.77149598  0.83398022  0.90441150    -0.14100
H415        H  0.77412779  0.88883509  0.86440499     0.12000
H416        H  0.83457437  0.79725411  0.87696488     0.12000
H417        H  0.81433299  0.75323928  0.92444359     0.12000
H418        H  0.75386278  0.84460695  0.91174293     0.12000
C419        C  0.17511944  0.84287545  0.61427340    -0.14100
C420        C  0.18650278  0.87987082  0.63304188     0.08000
C421        C  0.21002648  0.89009700  0.62461002    -0.14100
C422        C  0.22186924  0.86392187  0.59809792    -0.14100
C423        C  0.21051306  0.82670631  0.57961014     0.08000
C424        C  0.18700843  0.81650466  0.58796938    -0.14100
H425        H  0.15708650  0.83369296  0.62011724     0.12000
H426        H  0.21932634  0.91852683  0.63824753     0.12000
H427        H  0.23998782  0.87263328  0.59226553     0.12000
H428        H  0.17774139  0.78815876  0.57410136     0.12000
C429        C  0.20850517  0.11213442  0.87816965    -0.14100
C430        C  0.18583876  0.12552332  0.86738971     0.08000
C431        C  0.17517743  0.16510562  0.88409276    -0.14100
C432        C  0.18697751  0.19088021  0.91081096    -0.14100
C433        C  0.20963910  0.17743382  0.92158695     0.08000
C434        C  0.22023566  0.13769297  0.90502329    -0.14100
H435        H  0.21715691  0.08157342  0.86618085     0.12000
H436        H  0.15781133  0.17664227  0.87627081     0.12000
H437        H  0.17831473  0.22127891  0.92307532     0.12000
H438        H  0.23766111  0.12630651  0.91275293     0.12000
C439        C  0.98471225  0.94357473  0.75912196    -0.14100
C440        C  0.97108420  0.98536399  0.75819093     0.08000
C441        C  0.98231990  0.03006534  0.75771635    -0.14100
C442        C  0.00679437  0.03293028  0.75812452    -0.14100
C443        C  0.02040499  0.99112650  0.75787610     0.08000
C444        C  0.00918436  0.94642751  0.75840194    -0.14100
H445        H  0.97644024  0.90870205  0.75938001     0.12000
H446        H  0.97216479  0.06277863  0.75724699     0.12000
H447        H  0.01509085  0.06777774  0.75760778     0.12000
H448        H  0.01935824  0.91372724  0.75844704     0.12000
loop_ 
_geom_bond_atom_site_label_1 
_geom_bond_atom_site_label_2 
_geom_bond_distance 
_geom_bond_site_symmetry_2 
_ccdc_geom_bond_type 
N1            N2   1.322       .  A
N1            C5   1.344       .  A
N1           Cu9   2.073       .  S
N2            C3   1.344       .  A
N2           Cu8   2.073       .  S
C3            C4   1.387       .  A
C3            H6   1.081       .  S
C4            C5   1.386       .  A
C4          C430   1.483       .  S
C5            H7   1.081       .  S
Cu8          N11   2.072   1_545  S
Cu9          N19   2.073       .  S
Cu10         N12   2.070       .  S
Cu10         N18   2.070       .  S
N11          N12   1.321       .  A
N11          C15   1.345       .  A
N12          C13   1.343       .  A
C13          C14   1.387       .  A
C13          H16   1.081       .  S
C14          C15   1.388       .  A
C14         C420   1.484       .  S
C15          H17   1.081       .  S
N18          N19   1.321   1_565  A
N18          C22   1.344       .  A
N19          C20   1.345       .  A
C20          C21   1.384   1_545  A
C20          H23   1.082       .  S
C21          C22   1.383       .  A
C21         C443   1.475       .  S
C22          H24   1.082       .  S
N25          N26   1.322       .  A
N25          C29   1.343       .  A
N25         Cu33   2.070       .  S
N26          C27   1.344       .  A
N26         Cu32   2.074       .  S
C27          C28   1.387       .  A
C27          H30   1.081       .  S
C28          C29   1.386       .  A
C28         C410   1.482       .  S
C29          H31   1.081       .  S
Cu32         N35   2.074   1_565  S
Cu33         N43   2.070       .  S
Cu34         N36   2.076       .  S
Cu34         N42   2.076   1_545  S
N35          N36   1.321       .  A
N35          C39   1.345       .  A
N36          C37   1.344       .  A
C37          C38   1.388       .  A
C37          H40   1.081       .  S
C38          C39   1.388       .  A
C38         C400   1.486       .  S
C39          H41   1.081       .  S
N42          N43   1.322       .  A
N42          C46   1.345   1_565  A
N43          C44   1.345       .  A
C44          C45   1.384       .  A
C44          H47   1.082       .  S
C45          C46   1.384   1_565  A
C45         C440   1.476       .  S
C46          H48   1.082       .  S
O49         Cu57   2.008       .  S
O49          C59   1.278       .  A
O50         Cu57   2.012       .  S
O50          C60   1.279       .  A
O51         Cu57   2.011       .  S
O51          C61   1.278       .  A
O52         Cu57   2.007       .  S
O52          C62   1.278       .  A
O53         Cu58   2.013       .  S
O53          C62   1.279       .  A
O54         Cu58   2.008       .  S
O54          C61   1.278       .  A
O55         Cu58   2.001       .  S
O55          C60   1.277       .  A
O56         Cu58   2.006       .  S
O56          C59   1.278       .  A
Cu57        Cu58   2.371       .  S
C59         C380   1.479       .  S
C60         C370   1.479       .  S
C61         C423   1.480       .  S
C62         C390   1.482       .  S
N63          N64   1.322       .  A
N63          C67   1.345       .  A
N63         Cu71   2.076       .  S
N64          C65   1.344       .  A
N64         Cu70   2.072       .  S
C65          C66   1.385       .  A
C65          H68   1.082       .  S
C66          C67   1.386       .  A
C66         C383   1.480       .  S
C67          H69   1.082       .  S
Cu70         N73   2.071       .  S
Cu71         N81   2.076       .  S
Cu72         N74   2.071       .  S
Cu72         N80   2.071       .  S
N73          N74   1.321       .  A
N73          C77   1.345       .  A
N74          C75   1.344       .  A
C75          C76   1.385       .  A
C75          H78   1.082       .  S
C76          C77   1.386       .  A
C76         C350   1.480       .  S
C77          H79   1.082       .  S
N80          N81   1.321       .  A
N80          C84   1.344       .  A
N81          C82   1.346       .  A
C82          C83   1.387       .  A
C82          H85   1.082       .  S
C83          C84   1.385       .  A
C83         C360   1.481       .  S
C84          H86   1.082       .  S
N87          N88   1.323       .  A
N87          C91   1.345       .  A
N87         Cu95   2.076       .  S
N88          C89   1.345       .  A
N88         Cu94   2.076       .  S
C89          C90   1.386       .  A
C89          H92   1.082       .  S
C90          C91   1.386       .  A
C90         C330   1.482       .  S
C91          H93   1.082       .  S
Cu94         N97   2.076       .  S
Cu95        N105   2.076       .  S
Cu96         N98   2.071       .  S
Cu96        N104   2.071       .  S
N97          N98   1.321       .  A
N97         C101   1.345       .  A
N98          C99   1.344       .  A
C99         C100   1.386       .  A
C99         H102   1.082       .  S
C100        C101   1.387       .  A
C100        C340   1.483       .  S
C101        H103   1.082       .  S
N104        N105   1.321       .  A
N104        C108   1.344       .  A
N105        C106   1.347       .  A
C106        C107   1.386       .  A
C106        H109   1.082       .  S
C107        C108   1.384       .  A
C107        C363   1.479       .  S
C108        H110   1.082       .  S
O111       Cu119   2.012       .  S
O111        C121   1.279       .  A
O112       Cu119   2.010   1_556  S
O112        C122   1.279       .  A
O113       Cu119   2.002       .  S
O113        C123   1.278       .  A
O114       Cu119   2.005   1_556  S
O114        C124   1.278       .  A
O115       Cu120   2.009   1_556  S
O115        C124   1.279       .  A
O116       Cu120   2.014       .  S
O116        C123   1.279       .  A
O117       Cu120   2.009   1_556  S
O117        C122   1.278       .  A
O118       Cu120   2.004       .  S
O118        C121   1.278       .  A
Cu119      Cu120   2.371       .  S
C121        C310   1.480       .  S
C122        C343   1.481       .  S
C123        C320   1.481       .  S
C124        C413   1.479       .  S
N125        N126   1.321       .  A
N125        C129   1.345       .  A
N125       Cu133   2.076       .  S
N126        C127   1.345       .  A
N126       Cu132   2.077       .  S
C127        C128   1.388       .  A
C127        H130   1.081       .  S
C128        C129   1.388       .  A
C128        C393   1.486       .  S
C129        H131   1.081       .  S
Cu132       N135   2.078       .  S
Cu133       N143   2.076       .  S
Cu134       N136   2.073       .  S
Cu134       N142   2.073       .  S
N135        N136   1.322       .  A
N135        C139   1.345       .  A
N136        C137   1.344       .  A
C137        C138   1.387       .  A
C137        H140   1.081       .  S
C138        C139   1.387       .  A
C138        C290   1.484       .  S
C139        H141   1.081       .  S
N142        N143   1.322       .  A
N142        C146   1.345       .  A
N143        C144   1.345       .  A
C144        C145   1.384       .  A
C144        H147   1.082       .  S
C145        C146   1.383       .  A
C145        C300   1.475       .  S
C146        H148   1.082       .  S
N149        N150   1.321       .  A
N149        C153   1.344       .  A
N149       Cu157   2.076       .  S
N150        C151   1.345       .  A
N150       Cu156   2.069       .  S
C151        C152   1.387       .  A
C151        H154   1.081       .  S
C152        C153   1.388       .  A
C152        C323   1.484       .  S
C153        H155   1.081       .  S
Cu156       N159   2.069       .  S
Cu157       N167   2.076       .  S
Cu158       N160   2.070       .  S
Cu158       N166   2.070       .  S
N159        N160   1.322       .  A
N159        C163   1.343       .  A
N160        C161   1.344       .  A
C161        C162   1.386       .  A
C161        H164   1.082       .  S
C162        C163   1.385       .  A
C162        C280   1.479       .  S
C163        H165   1.081       .  S
N166        N167   1.322       .  A
N166        C170   1.345       .  A
N167        C168   1.345       .  A
C168        C169   1.383       .  A
C168        H171   1.082       .  S
C169        C170   1.383       .  A
C169        C303   1.473       .  S
C170        H172   1.082       .  S
O173       Cu181   2.008       .  S
O173        C183   1.278       .  A
O174       Cu181   2.007       .  S
O174        C184   1.278       .  A
O175       Cu181   2.006       .  S
O175        C185   1.278       .  A
O176       Cu181   2.009       .  S
O176        C186   1.278       .  A
O177       Cu182   2.010       .  S
O177        C186   1.278       .  A
O178       Cu182   2.013       .  S
O178        C185   1.279       .  A
O179       Cu182   2.012       .  S
O179        C184   1.279       .  A
O180       Cu182   2.004       .  S
O180        C183   1.278       .  A
Cu181      Cu182   2.371       .  S
C183        C283   1.479       .  S
C184        C403   1.481       .  S
C185        C273   1.481       .  S
C186        C333   1.480       .  S
O187       Cu195   2.016       .  S
O187        C197   1.279       .  A
O188       Cu195   2.014   1_556  S
O188        C198   1.279       .  A
O189       Cu195   2.002       .  S
O189        C199   1.277       .  A
O190       Cu195   2.004   1_556  S
O190        C200   1.278       .  A
O191       Cu196   2.010   1_556  S
O191        C200   1.279       .  A
O192       Cu196   2.012       .  S
O192        C199   1.279       .  A
O193       Cu196   2.004   1_556  S
O193        C198   1.278       .  A
O194       Cu196   2.003       .  S
O194        C197   1.277       .  A
Cu195      Cu196   2.371       .  S
C197        C293   1.481       .  S
C198        C433   1.481       .  S
C199        C260   1.480       .  S
C200        C353   1.479       .  S
N201        N202   1.322       .  A
N201        C205   1.345       .  A
N201       Cu209   2.075       .  S
N202        C203   1.344       .  A
N202       Cu208   2.072   1_545  S
C203        C204   1.385       .  A
C203        H206   1.082       .  S
C204        C205   1.385       .  A
C204        C263   1.479       .  S
C205        H207   1.082       .  S
Cu208       N211   2.072       .  S
Cu209       N219   2.075       .  S
Cu210       N212   2.068       .  S
Cu210       N218   2.068       .  S
N211        N212   1.321       .  A
N211        C215   1.345       .  A
N212        C213   1.342       .  A
C213        C214   1.386       .  A
C213        H216   1.081       .  S
C214        C215   1.388       .  A
C214        C373   1.483       .  S
C215        H217   1.081       .  S
N218        N219   1.321   1_565  A
N218        C222   1.344       .  A
N219        C220   1.346       .  A
C220        C221   1.385   1_545  A
C220        H223   1.082       .  S
C221        C222   1.383       .  A
C221        C250   1.476       .  S
C222        H224   1.082       .  S
N225        N226   1.321       .  A
N225        C229   1.344       .  A
N225       Cu233   2.073       .  S
N226        C227   1.345       .  A
N226       Cu232   2.073   1_545  S
C227        C228   1.388       .  A
C227        H230   1.081       .  S
C228        C229   1.387       .  A
C228        C270   1.484       .  S
C229        H231   1.081       .  S
Cu232       N235   2.073       .  S
Cu233       N243   2.072   1_545  S
Cu234       N236   2.073       .  S
Cu234       N242   2.073       .  S
N235        N236   1.322       .  A
N235        C239   1.344       .  A
N236        C237   1.344       .  A
C237        C238   1.386       .  A
C237        H240   1.081       .  S
C238        C239   1.386       .  A
C238        C313   1.482       .  S
C239        H241   1.081       .  S
N242        N243   1.322       .  A
N242        C246   1.345       .  A
N243        C244   1.345   1_565  A
C244        C245   1.383   1_545  A
C244        H247   1.082       .  S
C245        C246   1.384       .  A
C245        C253   1.474       .  S
C246        H248   1.082       .  S
C249        C250   1.405       .  A
C249        C254   1.399   1_455  A
C249        H255   1.083       .  S
C250        C251   1.404   1_565  A
C251        C252   1.398   1_455  A
C251        H256   1.083       .  S
C252        C253   1.403   1_545  A
C252        H257   1.083       .  S
C253        C254   1.403       .  A
C254        H258   1.083       .  S
C259        C260   1.405       .  A
C259        C264   1.397       .  A
C259        H265   1.083       .  S
C260        C261   1.406       .  A
C261        C262   1.397       .  A
C261        H266   1.083       .  S
C262        C263   1.404       .  A
C262        H267   1.083       .  S
C263        C264   1.405       .  A
C264        H268   1.082       .  S
C269        C270   1.406       .  A
C269        C274   1.399       .  A
C269        H275   1.082       .  S
C270        C271   1.406       .  A
C271        C272   1.397       .  A
C271        H276   1.082       .  S
C272        C273   1.405       .  A
C272        H277   1.083       .  S
C273        C274   1.405       .  A
C274        H278   1.083       .  S
C279        C280   1.405       .  A
C279        C284   1.397       .  A
C279        H285   1.082       .  S
C280        C281   1.405       .  A
C281        C282   1.397       .  A
C281        H286   1.082       .  S
C282        C283   1.405       .  A
C282        H287   1.083       .  S
C283        C284   1.405       .  A
C284        H288   1.083       .  S
C289        C290   1.405       .  A
C289        C294   1.398       .  A
C289        H295   1.082       .  S
C290        C291   1.406       .  A
C291        C292   1.399       .  A
C291        H296   1.082       .  S
C292        C293   1.405       .  A
C292        H297   1.083       .  S
C293        C294   1.406       .  A
C294        H298   1.083       .  S
C299        C300   1.404       .  A
C299        C304   1.399       .  A
C299        H305   1.083       .  S
C300        C301   1.404       .  A
C301        C302   1.398       .  A
C301        H306   1.083       .  S
C302        C303   1.403       .  A
C302        H307   1.083       .  S
C303        C304   1.403       .  A
C304        H308   1.083       .  S
C309        C310   1.405       .  A
C309        C314   1.398       .  A
C309        H315   1.083       .  S
C310        C311   1.405       .  A
C311        C312   1.397       .  A
C311        H316   1.083       .  S
C312        C313   1.405       .  A
C312        H317   1.082       .  S
C313        C314   1.406       .  A
C314        H318   1.082       .  S
C319        C320   1.405       .  A
C319        C324   1.399       .  A
C319        H325   1.083       .  S
C320        C321   1.405       .  A
C321        C322   1.397       .  A
C321        H326   1.083       .  S
C322        C323   1.405       .  A
C322        H327   1.082       .  S
C323        C324   1.407       .  A
C324        H328   1.082       .  S
C329        C330   1.405       .  A
C329        C334   1.398       .  A
C329        H335   1.082       .  S
C330        C331   1.405       .  A
C331        C332   1.398       .  A
C331        H336   1.082       .  S
C332        C333   1.405       .  A
C332        H337   1.083       .  S
C333        C334   1.405       .  A
C334        H338   1.083       .  S
C339        C340   1.406       .  A
C339        C344   1.398       .  A
C339        H345   1.082       .  S
C340        C341   1.405       .  A
C341        C342   1.399       .  A
C341        H346   1.082       .  S
C342        C343   1.406       .  A
C342        H347   1.083       .  S
C343        C344   1.405       .  A
C344        H348   1.083       .  S
C349        C350   1.405       .  A
C349        C354   1.398       .  A
C349        H355   1.082       .  S
C350        C351   1.405       .  A
C351        C352   1.397       .  A
C351        H356   1.082       .  S
C352        C353   1.405       .  A
C352        H357   1.083       .  S
C353        C354   1.406       .  A
C354        H358   1.083       .  S
C359        C360   1.405       .  A
C359        C364   1.397       .  A
C359        H365   1.082       .  S
C360        C361   1.406       .  A
C361        C362   1.400       .  A
C361        H366   1.082       .  S
C362        C363   1.404       .  A
C362        H367   1.083       .  S
C363        C364   1.404       .  A
C364        H368   1.083       .  S
C369        C370   1.404       .  A
C369        C374   1.396       .  A
C369        H375   1.083       .  S
C370        C371   1.405       .  A
C371        C372   1.399       .  A
C371        H376   1.083       .  S
C372        C373   1.406       .  A
C372        H377   1.082       .  S
C373        C374   1.405       .  A
C374        H378   1.082       .  S
C379        C380   1.405       .  A
C379        C384   1.397       .  A
C379        H385   1.083       .  S
C380        C381   1.405       .  A
C381        C382   1.398       .  A
C381        H386   1.083       .  S
C382        C383   1.405       .  A
C382        H387   1.082       .  S
C383        C384   1.405       .  A
C384        H388   1.082       .  S
C389        C390   1.405       .  A
C389        C394   1.399       .  A
C389        H395   1.083       .  S
C390        C391   1.406       .  A
C391        C392   1.399       .  A
C391        H396   1.083       .  S
C392        C393   1.406       .  A
C392        H397   1.082       .  S
C393        C394   1.406       .  A
C394        H398   1.082       .  S
C399        C400   1.407       .  A
C399        C404   1.399       .  A
C399        H405   1.082       .  S
C400        C401   1.406       .  A
C401        C402   1.398       .  A
C401        H406   1.082       .  S
C402        C403   1.405       .  A
C402        H407   1.083       .  S
C403        C404   1.405       .  A
C404        H408   1.083       .  S
C409        C410   1.405       .  A
C409        C414   1.397       .  A
C409        H415   1.082       .  S
C410        C411   1.406       .  A
C411        C412   1.397       .  A
C411        H416   1.082       .  S
C412        C413   1.405       .  A
C412        H417   1.083       .  S
C413        C414   1.405       .  A
C414        H418   1.083       .  S
C419        C420   1.406       .  A
C419        C424   1.397       .  A
C419        H425   1.081       .  S
C420        C421   1.406       .  A
C421        C422   1.398       .  A
C421        H426   1.082       .  S
C422        C423   1.405       .  A
C422        H427   1.083       .  S
C423        C424   1.404       .  A
C424        H428   1.083       .  S
C429        C430   1.405       .  A
C429        C434   1.397       .  A
C429        H435   1.082       .  S
C430        C431   1.406       .  A
C431        C432   1.399       .  A
C431        H436   1.082       .  S
C432        C433   1.405       .  A
C432        H437   1.083       .  S
C433        C434   1.406       .  A
C434        H438   1.083       .  S
C439        C440   1.404       .  A
C439        C444   1.398   1_655  A
C439        H445   1.083       .  S
C440        C441   1.404   1_565  A
C441        C442   1.398   1_655  A
C441        H446   1.083       .  S
C442        C443   1.403   1_545  A
C442        H447   1.083       .  S
C443        C444   1.404       .  A
C444        H448   1.083       .  S
