geometry optimzed in LAMMPS
_audit_creation_date              2020-11-30 
_audit_creation_method            'lammps2cif' 
_symmetry_space_group_name_H-M    'P1' 
_symmetry_Int_Tables_number       1 
_symmetry_cell_setting            triclinic 
loop_ 
_symmetry_equiv_pos_as_xyz 
  x,y,z 
_cell_length_a                    60.78706936 
_cell_length_b                    60.82174257421756 
_cell_length_c                    60.81898438560238 
_cell_angle_alpha                 89.8833201239174 
_cell_angle_beta                  89.93006480346968 
_cell_angle_gamma                 90.021878457618 
loop_ 
_atom_site_label 
_atom_site_type_symbol 
_atom_site_fract_x 
_atom_site_fract_y 
_atom_site_fract_z 
_atom_site_charge 
O1          O  0.12187356  0.09782141  0.39269207    -0.71800
O2          O  0.12734071  0.16015270  0.39141932    -0.72000
O3          O  0.09332490  0.13153992  0.39251893    -0.71800
O4          O  0.15560283  0.12630944  0.39195270    -0.71800
O5          O  0.15539180  0.12672788  0.35625535    -0.71800
O6          O  0.09293850  0.13033230  0.35690627    -0.71800
O7          O  0.12573270  0.15967775  0.35600782    -0.71800
O8          O  0.12251236  0.09732524  0.35696791    -0.72000
V9          V  0.12449606  0.12897581  0.39146816     1.35200
V10         V  0.12414753  0.12851749  0.35722070     1.35200
C11         C  0.12171838  0.08695893  0.37497705     0.77500
C12         C  0.12729127  0.17074087  0.37348310     0.77500
C13         C  0.08242873  0.13161105  0.37482434     0.77400
C14         C  0.16612279  0.12567503  0.37404234     0.77400
O15         O  0.12471828  0.84744340  0.39334494    -0.71800
O16         O  0.12576975  0.90980275  0.39588630    -0.72000
O17         O  0.09435771  0.87930402  0.39318371    -0.71800
O18         O  0.15672691  0.87787420  0.39628284    -0.71800
O19         O  0.15856915  0.88059953  0.36068947    -0.71800
O20         O  0.09600580  0.87958590  0.35753116    -0.71800
O21         O  0.12671795  0.91114250  0.36027100    -0.71800
O22         O  0.12814792  0.84880754  0.35810446    -0.72000
V23         V  0.12550131  0.87861363  0.39399041     1.35200
V24         V  0.12731587  0.87996956  0.35981178     1.35200
C25         C  0.12648051  0.83728380  0.37533632     0.77500
C26         C  0.12572191  0.92115222  0.37844359     0.77500
C27         C  0.08452781  0.87987783  0.37491017     0.77400
C28         C  0.16824992  0.87924924  0.37901676     0.77400
O29         O  0.87300729  0.16533065  0.38974291    -0.71800
O30         O  0.87465898  0.10272949  0.38996858    -0.72000
O31         O  0.90502106  0.13500615  0.39036652    -0.71800
O32         O  0.84252532  0.13338090  0.38934326    -0.71800
O33         O  0.84325254  0.13113542  0.35397527    -0.71800
O34         O  0.90567432  0.13647535  0.35471970    -0.71800
O35         O  0.87698078  0.10276976  0.35436281    -0.71800
O36         O  0.87175705  0.16505123  0.35404371    -0.72000
V37         V  0.87381692  0.13407140  0.38918383     1.35200
V38         V  0.87440863  0.13390158  0.35494947     1.35200
C39         C  0.87184687  0.17580868  0.37181134     0.77500
C40         C  0.87634019  0.09206353  0.37218161     0.77500
C41         C  0.91604407  0.13619249  0.37275611     0.77400
C42         C  0.83203126  0.13173727  0.37149137     0.77400
O43         O  0.90668256  0.88379811  0.39095521    -0.71800
O44         O  0.84426767  0.88450887  0.38835512    -0.72000
O45         O  0.87480373  0.85277595  0.39005401    -0.71800
O46         O  0.87600996  0.91540414  0.38903870    -0.71800
O47         O  0.87791202  0.91480754  0.35337696    -0.71800
O48         O  0.87582262  0.85235571  0.35435668    -0.71800
O49         O  0.84557355  0.88454749  0.35269570    -0.71800
O50         O  0.90820913  0.88257441  0.35536801    -0.72000
V51         V  0.87548034  0.88409591  0.38890463     1.35200
V52         V  0.87687913  0.88357976  0.35464049     1.35200
C53         C  0.91817563  0.88317148  0.37363560     0.77500
C54         C  0.83422871  0.88470518  0.37016679     0.77500
C55         C  0.87475137  0.84192057  0.37231531     0.77400
C56         C  0.87724952  0.92575455  0.37100641     0.77400
O57         O  0.13820464  0.41119948  0.37549914    -0.71800
O58         O  0.14355686  0.34920418  0.37318212    -0.72000
O59         O  0.13808621  0.38102096  0.34351721    -0.71800
O60         O  0.14350209  0.37918003  0.40564548    -0.71800
O61         O  0.10792912  0.37672156  0.40853017    -0.71800
O62         O  0.10266665  0.37705655  0.34647296    -0.71800
O63         O  0.10821729  0.34590206  0.37708532    -0.71800
O64         O  0.10265393  0.40820309  0.37764219    -0.72000
V65         V  0.14014180  0.38012696  0.37458018     1.35200
V66         V  0.10604399  0.37707459  0.37743874     1.35200
C67         C  0.11954949  0.42029887  0.37628220     0.77500
C68         C  0.12683489  0.33695646  0.37452898     0.77500
C69         C  0.11951187  0.37888870  0.33445758     0.77400
C70         C  0.12657383  0.37749636  0.41762716     0.77400
O71         O  0.14264553  0.40308006  0.62572005    -0.71800
O72         O  0.14530201  0.34032886  0.62639450    -0.72000
O73         O  0.14506548  0.37203241  0.59487989    -0.71800
O74         O  0.14328633  0.37189776  0.65718001    -0.71800
O75         O  0.10775837  0.37097448  0.65654197    -0.71800
O76         O  0.10966493  0.36893567  0.59385938    -0.71800
O77         O  0.10960802  0.33907528  0.62655311    -0.71800
O78         O  0.10712375  0.40121135  0.62352630    -0.72000
V79         V  0.14341137  0.37173768  0.62603464     1.35200
V80         V  0.10922248  0.37013247  0.62515466     1.35200
C81         C  0.12434090  0.41283727  0.62385411     0.77500
C82         C  0.12775295  0.32905960  0.62712318     0.77500
C83         C  0.12770090  0.37091248  0.58358143     0.77400
C84         C  0.12536353  0.37109393  0.66767929     0.77400
O85         O  0.13364943  0.62581581  0.40342015    -0.71800
O86         O  0.13727848  0.62784423  0.34119624    -0.72000
O87         O  0.13721578  0.65810004  0.37348327    -0.71800
O88         O  0.13335186  0.59580044  0.37121855    -0.71800
O89         O  0.09776470  0.59788864  0.37162389    -0.71800
O90         O  0.10212526  0.66024535  0.36916008    -0.71800
O91         O  0.10157196  0.62790651  0.33914849    -0.71800
O92         O  0.09820692  0.63002457  0.40157404    -0.72000
V93         V  0.13469847  0.62694687  0.37227459     1.35200
V94         V  0.10056495  0.62903303  0.37039663     1.35200
C95         C  0.11534254  0.62756059  0.41309178     0.77500
C96         C  0.12006203  0.62774111  0.32961555     0.77500
C97         C  0.12033611  0.67004945  0.37130633     0.77400
C98         C  0.11491777  0.58614305  0.37175522     0.77400
O99         O  0.10086704  0.58909432  0.62197246    -0.71800
O100        O  0.10047502  0.65163788  0.62089439    -0.72000
O101        O  0.09859650  0.61985972  0.59040283    -0.71800
O102        O  0.10274847  0.62090526  0.65290723    -0.71800
O103        O  0.13840394  0.62107688  0.65044862    -0.71800
O104        O  0.13424116  0.62027579  0.58802153    -0.71800
O105        O  0.13610442  0.65180611  0.61885033    -0.71800
O106        O  0.13652280  0.58939553  0.61945499    -0.72000
V107        V  0.10135963  0.62037236  0.62155354     1.35200
V108        V  0.13561393  0.62060893  0.61926561     1.35200
C109        C  0.11876903  0.57861244  0.62049818     0.77500
C110        C  0.11823621  0.66240478  0.61954340     0.77500
C111        C  0.11572113  0.61992868  0.57857284     0.77400
C112        C  0.12130705  0.62133754  0.66232619     0.77400
O113        O  0.62201833  0.13850311  0.39632144    -0.71800
O114        O  0.62246549  0.13424031  0.33403452    -0.72000
O115        O  0.59093567  0.13392123  0.36514448    -0.71800
O116        O  0.65330724  0.13864973  0.36506365    -0.71800
O117        O  0.65597478  0.10328270  0.36837766    -0.71800
O118        O  0.59373365  0.09834666  0.36724517    -0.71800
O119        O  0.62563838  0.09872992  0.33640283    -0.71800
O120        O  0.62416384  0.10295273  0.39877762    -0.72000
V121        V  0.62219537  0.13563869  0.36518497     1.35200
V122        V  0.62480502  0.10151360  0.36760334     1.35200
C123        C  0.62314908  0.12143745  0.40818203     0.77500
C124        C  0.62441770  0.11584711  0.32461252     0.77500
C125        C  0.58175217  0.11529849  0.36633497     0.77400
C126        C  0.66533050  0.12183769  0.36696285     0.77400
O127        O  0.62474195  0.13853967  0.58500112    -0.71800
O128        O  0.62782201  0.13771789  0.64732300    -0.72000
O129        O  0.65743302  0.13861211  0.61466980    -0.71800
O130        O  0.59503331  0.13757445  0.61745279    -0.71800
O131        O  0.59550014  0.10212156  0.61750825    -0.71800
O132        O  0.65798407  0.10289768  0.61412445    -0.71800
O133        O  0.62821293  0.10209696  0.64695436    -0.71800
O134        O  0.62528022  0.10289149  0.58446389    -0.72000
V135        V  0.62625662  0.13741231  0.61611141     1.35200
V136        V  0.62672678  0.10317177  0.61573912     1.35200
C137        C  0.62467114  0.12090797  0.57405152     0.77500
C138        C  0.62852945  0.11978535  0.65785125     0.77500
C139        C  0.66833602  0.12093417  0.61404009     0.77400
C140        C  0.58442862  0.11970668  0.61806314     0.77400
O141        O  0.34146083  0.09946551  0.37667445    -0.71800
O142        O  0.40390502  0.09585343  0.37708264    -0.72000
O143        O  0.37252807  0.09648710  0.40811966    -0.71800
O144        O  0.37277275  0.09882142  0.34565165    -0.71800
O145        O  0.37401514  0.13444254  0.34694622    -0.71800
O146        O  0.37557264  0.13202794  0.40928491    -0.71800
O147        O  0.40593540  0.13123564  0.37697950    -0.71800
O148        O  0.34351357  0.13505210  0.37889803    -0.72000
V149        V  0.37269783  0.09832905  0.37691782     1.35200
V150        V  0.37471157  0.13250084  0.37806233     1.35200
C151        C  0.33185379  0.11787927  0.37758140     0.77500
C152        C  0.41577314  0.11292408  0.37678347     0.77500
C153        C  0.37426216  0.11387114  0.41935165     0.77400
C154        C  0.37330004  0.11706421  0.33563560     0.77400
O155        O  0.34508978  0.09890208  0.62805274    -0.71800
O156        O  0.40768465  0.10024086  0.62655924    -0.72000
O157        O  0.37718022  0.10017465  0.65860357    -0.71800
O158        O  0.37562104  0.09890985  0.59626444    -0.71800
O159        O  0.37589615  0.13454849  0.59533767    -0.71800
O160        O  0.37549799  0.13578641  0.65791200    -0.71800
O161        O  0.40693467  0.13596309  0.62643551    -0.71800
O162        O  0.34440422  0.13459315  0.62655856    -0.72000
V163        V  0.37638115  0.10025537  0.62738676     1.35200
V164        V  0.37568367  0.13453956  0.62661499     1.35200
C165        C  0.33410375  0.11654255  0.62723986     0.77500
C166        C  0.41793518  0.11833907  0.62606639     0.77500
C167        C  0.37640240  0.11815466  0.66896981     0.77400
C168        C  0.37581778  0.11645937  0.58511345     0.77400
O169        O  0.89330216  0.63688136  0.40602261    -0.71800
O170        O  0.89267711  0.63390141  0.34348320    -0.72000
O171        O  0.89051360  0.66659061  0.37338489    -0.71800
O172        O  0.89565198  0.60425540  0.37633624    -0.71800
O173        O  0.86008242  0.60138838  0.37579680    -0.71800
O174        O  0.85491936  0.66378965  0.37493567    -0.71800
O175        O  0.85699315  0.63196587  0.34417568    -0.71800
O176        O  0.85792400  0.63266000  0.40660723    -0.72000
V177        V  0.89235688  0.63538789  0.37479243     1.35200
V178        V  0.85817200  0.63258030  0.37535823     1.35200
C179        C  0.87576902  0.63467738  0.41705699     0.77500
C180        C  0.87466173  0.63221919  0.33320739     0.77500
C181        C  0.87188640  0.67583099  0.37399045     0.77400
C182        C  0.87871794  0.59215602  0.37647088     0.77400
O183        O  0.89703920  0.62740776  0.59377210    -0.71800
O184        O  0.89650730  0.62708733  0.65637846    -0.72000
O185        O  0.89647902  0.59598119  0.62514432    -0.71800
O186        O  0.89722486  0.65838150  0.62493031    -0.71800
O187        O  0.86157421  0.65877932  0.62598384    -0.71800
O188        O  0.86086051  0.59619868  0.62357047    -0.71800
O189        O  0.86076541  0.62641772  0.65603540    -0.71800
O190        O  0.86130315  0.62872001  0.59366425    -0.72000
V191        V  0.89612166  0.62718929  0.62507824     1.35200
V192        V  0.86181134  0.62750954  0.62484498     1.35200
C193        C  0.87920952  0.62845731  0.58311626     0.77500
C194        C  0.87850459  0.62664403  0.66683194     0.77500
C195        C  0.87863971  0.58536569  0.62395726     0.77400
C196        C  0.87954816  0.66929221  0.62540089     0.77400
O197        O  0.85653437  0.38394155  0.40008438    -0.71800
O198        O  0.85551031  0.38451849  0.33738967    -0.72000
O199        O  0.85395361  0.35327753  0.36850758    -0.71800
O200        O  0.85751108  0.41574510  0.36921979    -0.71800
O201        O  0.89308733  0.41389407  0.36934319    -0.71800
O202        O  0.88956619  0.35131255  0.36645528    -0.71800
O203        O  0.89098762  0.38422347  0.33698231    -0.71800
O204        O  0.89213202  0.38099963  0.39888385    -0.72000
V205        V  0.85652450  0.38442626  0.36874460     1.35200
V206        V  0.89073122  0.38265327  0.36794708     1.35200
C207        C  0.87467795  0.38183488  0.41006794     0.77500
C208        C  0.87320545  0.38422640  0.32637282     0.77500
C209        C  0.87111283  0.34164000  0.36727398     0.77400
C210        C  0.87585474  0.42558025  0.36974924     0.77400
O211        O  0.89975763  0.40899500  0.61669799    -0.71800
O212        O  0.89996017  0.34664815  0.61817995    -0.72000
O213        O  0.90077270  0.37700359  0.58617968    -0.71800
O214        O  0.89887544  0.37838302  0.64862765    -0.71800
O215        O  0.86324568  0.37690640  0.64761886    -0.71800
O216        O  0.86509305  0.37814402  0.58516993    -0.71800
O217        O  0.86429061  0.34654618  0.61592689    -0.71800
O218        O  0.86399287  0.40884393  0.61675450    -0.72000
V219        V  0.89915743  0.37780163  0.61736922     1.35200
V220        V  0.86484432  0.37766384  0.61637418     1.35200
C221        C  0.88183115  0.41950730  0.61676912     0.77500
C222        C  0.88213177  0.33601299  0.61737979     0.77500
C223        C  0.88323637  0.37734002  0.57502672     0.77400
C224        C  0.88076842  0.37713361  0.65882585     0.77400
O225        O  0.34509465  0.86377774  0.38545433    -0.71800
O226        O  0.40774709  0.86487011  0.38658921    -0.72000
O227        O  0.37567142  0.86383155  0.41770249    -0.71800
O228        O  0.37696786  0.86512061  0.35483307    -0.71800
O229        O  0.37409449  0.90065981  0.35562241    -0.71800
O230        O  0.37787658  0.89927125  0.41808168    -0.71800
O231        O  0.40711779  0.90051376  0.38478144    -0.71800
O232        O  0.34451482  0.89933712  0.38865331    -0.72000
V233        V  0.37639257  0.86504786  0.38622106     1.35200
V234        V  0.37588506  0.89926215  0.38683878     1.35200
C235        C  0.33412752  0.88137630  0.38686152     0.77500
C236        C  0.41810556  0.88285871  0.38496095     0.77500
C237        C  0.37683669  0.88143888  0.42877864     0.77400
C238        C  0.37533417  0.88316060  0.34449584     0.77400
O239        O  0.34649499  0.86110421  0.63477282    -0.71800
O240        O  0.40887526  0.86217863  0.63913443    -0.72000
O241        O  0.37562438  0.85999518  0.66834148    -0.71800
O242        O  0.37958637  0.86303816  0.60588760    -0.71800
O243        O  0.37710737  0.89865029  0.60734938    -0.71800
O244        O  0.37680349  0.89566332  0.67002965    -0.71800
O245        O  0.40824309  0.89779369  0.63857645    -0.71800
O246        O  0.34566909  0.89648308  0.63855828    -0.72000
V247        V  0.37765419  0.86226025  0.63712463     1.35200
V248        V  0.37697942  0.89647886  0.63865776     1.35200
C249        C  0.33534712  0.87864282  0.63584547     0.77500
C250        C  0.41930392  0.88019367  0.63880575     0.77500
C251        C  0.37581991  0.87730824  0.67981903     0.77400
C252        C  0.37849571  0.88130270  0.59598183     0.77400
O253        O  0.59605220  0.86416537  0.62867153    -0.71800
O254        O  0.65850589  0.86417628  0.62320482    -0.72000
O255        O  0.62972970  0.86524919  0.65689092    -0.71800
O256        O  0.62437860  0.86297395  0.59482343    -0.71800
O257        O  0.62729144  0.89830781  0.59313836    -0.71800
O258        O  0.62740030  0.90079820  0.65582135    -0.71800
O259        O  0.65850964  0.89987306  0.62448974    -0.71800
O260        O  0.59590446  0.89965911  0.62460248    -0.72000
V261        V  0.62722395  0.86481466  0.62583967     1.35200
V262        V  0.62724551  0.89901716  0.62450254     1.35200
C263        C  0.58534365  0.88193719  0.62735346     0.77500
C264        C  0.66915912  0.88206703  0.62359519     0.77500
C265        C  0.62893998  0.88332032  0.66707447     0.77400
C266        C  0.62529139  0.88015430  0.58316115     0.77400
O267        O  0.62632319  0.89759153  0.40703513    -0.71800
O268        O  0.62603964  0.90195638  0.34453711    -0.72000
O269        O  0.59500973  0.90018334  0.37588636    -0.71800
O270        O  0.65740323  0.89946943  0.37556293    -0.71800
O271        O  0.65707379  0.86388465  0.37288923    -0.71800
O272        O  0.59444421  0.86457055  0.37395321    -0.71800
O273        O  0.62533642  0.86633890  0.34226527    -0.71800
O274        O  0.62602948  0.86195189  0.40470767    -0.72000
V275        V  0.62619196  0.89909063  0.37574114     1.35200
V276        V  0.62575172  0.86486636  0.37350458     1.35200
C277        C  0.62609088  0.87904777  0.41651100     0.77500
C278        C  0.62558379  0.88485201  0.33274753     0.77500
C279        C  0.58404384  0.88255651  0.37501891     0.77400
C280        C  0.66791088  0.88162732  0.37389352     0.77400
O281        O  0.12836462  0.83969827  0.60516798    -0.71800
O282        O  0.12577964  0.90205019  0.60754787    -0.72000
O283        O  0.15849683  0.87250744  0.60692441    -0.71800
O284        O  0.09595738  0.86936569  0.60605010    -0.71800
O285        O  0.09548544  0.86875726  0.64170440    -0.71800
O286        O  0.15803308  0.87021677  0.64249752    -0.71800
O287        O  0.12589033  0.90075284  0.64325322    -0.71800
O288        O  0.12727670  0.83810691  0.64083972    -0.72000
V289        V  0.12719129  0.87085636  0.60713031     1.35200
V290        V  0.12673482  0.86946459  0.64139676     1.35200
C291        C  0.12752361  0.82826133  0.62252063     0.77500
C292        C  0.12543479  0.91202950  0.62574498     0.77500
C293        C  0.16898983  0.87209075  0.62488661     0.77400
C294        C  0.08502395  0.86865313  0.62374914     0.77400
O295        O  0.15669745  0.12055279  0.61090779    -0.71800
O296        O  0.09421736  0.12212274  0.61321083    -0.72000
O297        O  0.12617136  0.15252068  0.61236137    -0.71800
O298        O  0.12490762  0.08998484  0.61190440    -0.71800
O299        O  0.12385104  0.08967934  0.64733736    -0.71800
O300        O  0.12907978  0.15204319  0.64791436    -0.71800
O301        O  0.09548408  0.12366118  0.64886198    -0.71800
O302        O  0.15790702  0.11819942  0.64651892    -0.72000
V303        V  0.12550606  0.12126782  0.61277686     1.35200
V304        V  0.12661766  0.12087364  0.64699405     1.35200
C305        C  0.16795846  0.11886049  0.62828264     0.77500
C306        C  0.08422992  0.12373638  0.63139723     0.77500
C307        C  0.12774544  0.16297772  0.63024645     0.77400
C308        C  0.12388584  0.07895927  0.62954005     0.77400
O309        O  0.90937077  0.13000437  0.61103211    -0.71800
O310        O  0.84723398  0.12737114  0.60392930    -0.72000
O311        O  0.87740819  0.16007155  0.60687594    -0.71800
O312        O  0.87937648  0.09759754  0.60818693    -0.71800
O313        O  0.87521390  0.09807594  0.64361509    -0.71800
O314        O  0.87335580  0.16058914  0.64233467    -0.71800
O315        O  0.84315187  0.12815193  0.63928904    -0.71800
O316        O  0.90545751  0.13078244  0.64639538    -0.72000
V317        V  0.87825408  0.12881331  0.60819995     1.35200
V318        V  0.87436158  0.12937381  0.64223326     1.35200
C319        C  0.91812450  0.13113659  0.62985856     0.77500
C320        C  0.83450903  0.12683888  0.62038918     0.77500
C321        C  0.87556635  0.17099502  0.62446436     0.77400
C322        C  0.87726244  0.08713868  0.62605951     0.77400
O323        O  0.84535179  0.87848884  0.64063423    -0.71800
O324        O  0.90790567  0.87830249  0.64281665    -0.72000
O325        O  0.87668276  0.90983168  0.64175413    -0.71800
O326        O  0.87676118  0.84726141  0.64144956    -0.71800
O327        O  0.87664396  0.84745446  0.60604277    -0.71800
O328        O  0.87874227  0.91000921  0.60614603    -0.71800
O329        O  0.90908037  0.87738115  0.60714542    -0.71800
O330        O  0.84650742  0.87980137  0.60495834    -0.72000
V331        V  0.87666457  0.87853093  0.64097627     1.35200
V332        V  0.87776230  0.87870655  0.60675051     1.35200
C333        C  0.83527877  0.87923730  0.62246307     0.77500
C334        C  0.91913126  0.87705104  0.62536136     0.77500
C335        C  0.87765073  0.92064658  0.62397697     0.77400
C336        C  0.87668789  0.83646322  0.62371585     0.77400
O337        O  0.35981186  0.12593835  0.15920938    -0.71800
O338        O  0.36008964  0.12619877  0.09685707    -0.72000
O339        O  0.36019565  0.09483177  0.12798043    -0.71800
O340        O  0.35976027  0.15736404  0.12810962    -0.71800
O341        O  0.39547935  0.15765714  0.12861084    -0.71800
O342        O  0.39591822  0.09503756  0.12778056    -0.71800
O343        O  0.39577892  0.12694428  0.09689459    -0.71800
O344        O  0.39553362  0.12577974  0.15947327    -0.72000
V345        V  0.36067621  0.12610640  0.12804419     1.35200
V346        V  0.39499916  0.12635968  0.12818003     1.35200
C347        C  0.37756574  0.12551830  0.16998517     0.77500
C348        C  0.37794067  0.12666730  0.08619597     0.77500
C349        C  0.37811019  0.08425621  0.12784753     0.77400
C350        C  0.37753175  0.16817900  0.12844726     0.77400
O351        O  0.36078487  0.09392070  0.88003405    -0.71800
O352        O  0.36209187  0.15643929  0.87676708    -0.72000
O353        O  0.36098448  0.12321756  0.84705253    -0.71800
O354        O  0.36153465  0.12658449  0.90939226    -0.71800
O355        O  0.39725524  0.12620599  0.90925046    -0.71800
O356        O  0.39654933  0.12271922  0.84643312    -0.71800
O357        O  0.39759255  0.15568177  0.87585957    -0.71800
O358        O  0.39648858  0.09334883  0.87970820    -0.72000
V359        V  0.36205379  0.12510412  0.87824110     1.35200
V360        V  0.39630229  0.12452266  0.87781980     1.35200
C361        C  0.37847193  0.08300122  0.88065412     0.77500
C362        C  0.38008707  0.16689343  0.87592728     0.77500
C363        C  0.37854474  0.12214121  0.83595272     0.77400
C364        C  0.37937718  0.12651928  0.92000674     0.77400
O365        O  0.35626732  0.84480226  0.89009641    -0.71800
O366        O  0.35831722  0.90733999  0.88687203    -0.72000
O367        O  0.35560342  0.87472281  0.85717978    -0.71800
O368        O  0.35844063  0.87747486  0.91941614    -0.71800
O369        O  0.39402459  0.87427560  0.91802230    -0.71800
O370        O  0.39132588  0.87550970  0.85552576    -0.71800
O371        O  0.39399716  0.90597417  0.88745375    -0.71800
O372        O  0.39150129  0.84383115  0.88603790    -0.72000
V373        V  0.35780794  0.87607521  0.88832138     1.35200
V374        V  0.39203186  0.87491453  0.88678326     1.35200
C375        C  0.37365823  0.83348633  0.88848283     0.77500
C376        C  0.37661083  0.91730760  0.88716590     0.77500
C377        C  0.37297671  0.87496759  0.84577224     0.77400
C378        C  0.37661728  0.87594301  0.92931197     0.77400
O379        O  0.38843050  0.90662115  0.13606199    -0.71800
O380        O  0.38552334  0.84411247  0.13747629    -0.72000
O381        O  0.38771042  0.87481251  0.10575148    -0.71800
O382        O  0.38637605  0.87605131  0.16800073    -0.71800
O383        O  0.35071242  0.87810142  0.16739551    -0.71800
O384        O  0.35203309  0.87587639  0.10482798    -0.71800
O385        O  0.34980767  0.84574379  0.13698709    -0.71800
O386        O  0.35278993  0.90820357  0.13479676    -0.72000
V387        V  0.38630020  0.87539787  0.13684081     1.35200
V388        V  0.35201463  0.87693752  0.13607819     1.35200
C389        C  0.37110861  0.91808415  0.13479835     0.77500
C390        C  0.36716656  0.83431128  0.13721726     0.77500
C391        C  0.37017170  0.87516061  0.09464750     0.77400
C392        C  0.36840756  0.87762577  0.17833976     0.77400
O393        O  0.86898738  0.35734669  0.14956179    -0.71800
O394        O  0.87304301  0.35661889  0.08710178    -0.72000
O395        O  0.90201899  0.35741642  0.12049988    -0.71800
O396        O  0.83952004  0.35667808  0.11604543    -0.71800
O397        O  0.83901631  0.39206664  0.11535674    -0.71800
O398        O  0.90143301  0.39313974  0.12028986    -0.71800
O399        O  0.87296423  0.39228247  0.08661750    -0.71800
O400        O  0.86766156  0.39287811  0.14892980    -0.72000
V401        V  0.87078925  0.35769003  0.11829862     1.35200
V402        V  0.87024007  0.39190382  0.11780787     1.35200
C403        C  0.86821481  0.37527992  0.16002340     0.77500
C404        C  0.87411787  0.37432595  0.07620835     0.77500
C405        C  0.91234417  0.37545396  0.12112290     0.77400
C406        C  0.82837922  0.37419374  0.11480248     0.77400
O407        O  0.91060864  0.38964597  0.86808366    -0.71800
O408        O  0.84825949  0.38490151  0.86850134    -0.72000
O409        O  0.87967892  0.38742506  0.89925160    -0.71800
O410        O  0.87897228  0.38709288  0.83656676    -0.71800
O411        O  0.88106670  0.35157272  0.83666405    -0.71800
O412        O  0.88295318  0.35189598  0.89946170    -0.71800
O413        O  0.85071476  0.34935882  0.86952035    -0.71800
O414        O  0.91315747  0.35411701  0.86738932    -0.72000
V415        V  0.87942977  0.38655801  0.86796971     1.35200
V416        V  0.88191968  0.35240215  0.86812866     1.35200
C417        C  0.92257284  0.37259520  0.86856171     0.77500
C418        C  0.83884154  0.36636595  0.87013369     0.77500
C419        C  0.88159719  0.36974088  0.91005581     0.77400
C420        C  0.87977717  0.36933805  0.82576837     0.77400
O421        O  0.09014227  0.36013489  0.12936769    -0.71800
O422        O  0.15277409  0.36230791  0.12639682    -0.72000
O423        O  0.12267375  0.36221633  0.15897620    -0.71800
O424        O  0.11995072  0.36001275  0.09668994    -0.71800
O425        O  0.12189423  0.39554819  0.09538114    -0.71800
O426        O  0.11823463  0.39757927  0.15790136    -0.71800
O427        O  0.15146366  0.39796482  0.12823413    -0.71800
O428        O  0.08892351  0.39549062  0.12499826    -0.72000
V429        V  0.12140802  0.36183039  0.12784531     1.35200
V430        V  0.12018598  0.39601175  0.12666383     1.35200
C431        C  0.07878852  0.37744211  0.12716705     0.77500
C432        C  0.16277520  0.38055213  0.12716740     0.77500
C433        C  0.11987262  0.38010994  0.16912112     0.77400
C434        C  0.12090576  0.37737342  0.08528271     0.77400
O435        O  0.16128980  0.39644496  0.87601660    -0.71800
O436        O  0.09870661  0.39341841  0.87708116    -0.72000
O437        O  0.13034359  0.39597201  0.90783476    -0.71800
O438        O  0.12927669  0.39359385  0.84516783    -0.71800
O439        O  0.13276116  0.35833210  0.84651891    -0.71800
O440        O  0.13070251  0.36028863  0.90890208    -0.71800
O441        O  0.10036216  0.35779605  0.87699712    -0.71800
O442        O  0.16291136  0.36088804  0.87872639    -0.72000
V443        V  0.12998499  0.39419463  0.87651348     1.35200
V444        V  0.13165260  0.36001694  0.87772722     1.35200
C445        C  0.17277677  0.37918158  0.87774589     0.77500
C446        C  0.08882221  0.37511933  0.87715574     0.77500
C447        C  0.13016371  0.37840339  0.91903380     0.77400
C448        C  0.13097705  0.37554433  0.83497443     0.77400
O449        O  0.60039866  0.84190545  0.12693449    -0.71800
O450        O  0.60009277  0.90466339  0.12413614    -0.72000
O451        O  0.59962229  0.87178584  0.09426337    -0.71800
O452        O  0.60065547  0.87494554  0.15676207    -0.71800
O453        O  0.63630603  0.87630151  0.15596476    -0.71800
O454        O  0.63534485  0.87061967  0.09369796    -0.71800
O455        O  0.63546207  0.90463003  0.12190628    -0.71800
O456        O  0.63607626  0.84231512  0.12736215    -0.72000
V457        V  0.60085412  0.87329392  0.12550773     1.35200
V458        V  0.63509967  0.87346607  0.12480561     1.35200
C459        C  0.61837272  0.83137386  0.12738984     0.77500
C460        C  0.61777220  0.91555213  0.12241357     0.77500
C461        C  0.61731781  0.87037598  0.08339285     0.77400
C462        C  0.61865673  0.87670964  0.16701671     0.77400
O463        O  0.63896893  0.86984935  0.84372705    -0.71800
O464        O  0.63744037  0.86756773  0.90611552    -0.72000
O465        O  0.63706433  0.83758286  0.87386361    -0.71800
O466        O  0.63951704  0.90003634  0.87559882    -0.71800
O467        O  0.60388820  0.90146405  0.87443577    -0.71800
O468        O  0.60134128  0.83898435  0.87391491    -0.71800
O469        O  0.60208748  0.86996292  0.90551172    -0.71800
O470        O  0.60329004  0.87085636  0.84288318    -0.72000
V471        V  0.63754881  0.86879207  0.87486558     1.35200
V472        V  0.60331818  0.87023017  0.87421521     1.35200
C473        C  0.62142744  0.87112878  0.83265435     0.77500
C474        C  0.61950702  0.86842571  0.91669968     0.77500
C475        C  0.61879749  0.82767685  0.87372951     0.77400
C476        C  0.62213377  0.91143901  0.87464094     0.77400
O477        O  0.61086559  0.08936712  0.86561454    -0.71800
O478        O  0.61430899  0.15198811  0.86544668    -0.72000
O479        O  0.61328185  0.12063461  0.83438177    -0.71800
O480        O  0.61164395  0.12073238  0.89680444    -0.71800
O481        O  0.64730968  0.11937512  0.89785498    -0.71800
O482        O  0.64889234  0.11805549  0.83514062    -0.71800
O483        O  0.64995328  0.14992816  0.86574549    -0.71800
O484        O  0.64647049  0.08749770  0.86718439    -0.72000
V485        V  0.61322399  0.12063779  0.86558692     1.35200
V486        V  0.64746847  0.11875262  0.86646221     1.35200
C487        C  0.62811471  0.07773205  0.86651216     0.77500
C488        C  0.63277183  0.16164075  0.86548649     0.77500
C489        C  0.63128797  0.11914975  0.82409015     0.77400
C490        C  0.62913588  0.12029285  0.90802296     0.77400
O491        O  0.60454417  0.12414982  0.14802952    -0.71800
O492        O  0.60489467  0.12558821  0.08529088    -0.72000
O493        O  0.60358399  0.09375470  0.11632189    -0.71800
O494        O  0.60542438  0.15614959  0.11714484    -0.71800
O495        O  0.64117050  0.15529755  0.11722674    -0.71800
O496        O  0.63931687  0.09260792  0.11647393    -0.71800
O497        O  0.64054152  0.12428430  0.08553900    -0.71800
O498        O  0.64022129  0.12343032  0.14797718    -0.72000
V499        V  0.60531007  0.12492862  0.11667784     1.35200
V500        V  0.63961834  0.12395546  0.11678363     1.35200
C501        C  0.62239944  0.12315548  0.15869452     0.77500
C502        C  0.62283871  0.12506443  0.07467632     0.77500
C503        C  0.62107507  0.08255953  0.11657210     0.77400
C504        C  0.62352651  0.16634787  0.11728379     0.77400
O505        O  0.12408423  0.64110961  0.15233897    -0.71800
O506        O  0.12313219  0.63764800  0.08980171    -0.72000
O507        O  0.09244294  0.63690266  0.12179813    -0.71800
O508        O  0.15487507  0.64174984  0.12033604    -0.71800
O509        O  0.15752903  0.60620681  0.12212631    -0.71800
O510        O  0.09524423  0.60140181  0.12389032    -0.71800
O511        O  0.12561758  0.60208947  0.09172194    -0.71800
O512        O  0.12722805  0.60557093  0.15430932    -0.72000
V513        V  0.12369822  0.63866544  0.12110899     1.35200
V514        V  0.12635411  0.60451693  0.12298617     1.35200
C515        C  0.12583076  0.62393063  0.16395882     0.77500
C516        C  0.12410318  0.61929670  0.08007827     0.77500
C517        C  0.08317208  0.61830667  0.12304328     0.77400
C518        C  0.16685447  0.62475224  0.12091186     0.77400
O519        O  0.15600695  0.64034526  0.87221568    -0.71800
O520        O  0.09350282  0.64023585  0.87227488    -0.72000
O521        O  0.12456490  0.63825959  0.90340682    -0.71800
O522        O  0.12514598  0.64192620  0.84059315    -0.71800
O523        O  0.12714924  0.60638328  0.83888208    -0.71800
O524        O  0.12219056  0.60288242  0.90117384    -0.71800
O525        O  0.09354164  0.60494938  0.86788667    -0.71800
O526        O  0.15615547  0.60467696  0.87223774    -0.72000
V527        V  0.12479782  0.63953615  0.87201987     1.35200
V528        V  0.12479867  0.60539512  0.87007403     1.35200
C529        C  0.16679714  0.62259690  0.87247711     0.77500
C530        C  0.08272778  0.62256580  0.87038711     0.77500
C531        C  0.12250552  0.61989285  0.91308064     0.77400
C532        C  0.12679856  0.62468578  0.82898909     0.77400
O533        O  0.90592740  0.63853272  0.87510235    -0.71800
O534        O  0.84341659  0.63984311  0.87620417    -0.72000
O535        O  0.87510965  0.63774108  0.90689407    -0.71800
O536        O  0.87436214  0.64053087  0.84431892    -0.71800
O537        O  0.87512103  0.60487334  0.84290384    -0.71800
O538        O  0.87255406  0.60223640  0.90540076    -0.71800
O539        O  0.84266168  0.60436952  0.87293255    -0.71800
O540        O  0.90517802  0.60281777  0.87508342    -0.72000
V541        V  0.87468179  0.63847748  0.87559161     1.35200
V542        V  0.87390576  0.60424963  0.87413740     1.35200
C543        C  0.91619655  0.62046903  0.87498207     0.77500
C544        C  0.83231533  0.62233516  0.87459550     0.77500
C545        C  0.87352640  0.61953818  0.91689441     0.77400
C546        C  0.87497240  0.62314069  0.83293918     0.77400
O547        O  0.87430788  0.59950491  0.15757135    -0.71800
O548        O  0.87354062  0.59791205  0.09475165    -0.72000
O549        O  0.90528979  0.59691201  0.12579532    -0.71800
O550        O  0.84285141  0.60010289  0.12678981    -0.71800
O551        O  0.84450899  0.63576478  0.12601676    -0.71800
O552        O  0.90715616  0.63254120  0.12454527    -0.71800
O553        O  0.87512094  0.63357062  0.09400818    -0.71800
O554        O  0.87651868  0.63508705  0.15631727    -0.72000
V555        V  0.87407241  0.59928589  0.12616811     1.35200
V556        V  0.87581419  0.63352917  0.12520655     1.35200
C557        C  0.87514128  0.61770671  0.16763151     0.77500
C558        C  0.87413559  0.61558990  0.08369071     0.77500
C559        C  0.91690067  0.61415020  0.12513654     0.77400
C560        C  0.83302851  0.61840866  0.12695252     0.77400
O561        O  0.36909327  0.40810805  0.14687196    -0.71800
O562        O  0.36902898  0.34533516  0.14787823    -0.72000
O563        O  0.40002195  0.37670118  0.15007042    -0.71800
O564        O  0.33777265  0.37666489  0.14483347    -0.71800
O565        O  0.34072448  0.37638768  0.10921185    -0.71800
O566        O  0.40298869  0.37610332  0.11446752    -0.71800
O567        O  0.37194027  0.34496906  0.11230906    -0.71800
O568        O  0.37205938  0.40751770  0.11133496    -0.72000
V569        V  0.36898274  0.37669846  0.14672513     1.35200
V570        V  0.37183844  0.37624605  0.11253284     1.35200
C571        C  0.37083103  0.41855024  0.12890663     0.77500
C572        C  0.37082612  0.33445041  0.13023915     0.77500
C573        C  0.41207580  0.37631361  0.13314655     0.77400
C574        C  0.32866750  0.37664537  0.12615934     0.77400
O575        O  0.34260443  0.62530100  0.14419114    -0.71800
O576        O  0.40520424  0.62685875  0.14655927    -0.72000
O577        O  0.37283867  0.65722893  0.14720591    -0.71800
O578        O  0.37471059  0.59489148  0.14372663    -0.71800
O579        O  0.37582997  0.59685240  0.10809197    -0.71800
O580        O  0.37440685  0.65935050  0.11157450    -0.71800
O581        O  0.40635589  0.62876313  0.11091933    -0.71800
O582        O  0.34407514  0.62759398  0.10856532    -0.72000
V583        V  0.37390144  0.62610912  0.14473949     1.35200
V584        V  0.37517713  0.62809650  0.11049591     1.35200
C585        C  0.33272114  0.62640609  0.12592397     0.77500
C586        C  0.41644122  0.62787230  0.12904960     0.77500
C587        C  0.37299451  0.66889224  0.12998487     0.77400
C588        C  0.37538980  0.58520745  0.12535863     0.77400
O589        O  0.59331377  0.62552360  0.14575792    -0.71800
O590        O  0.65567415  0.62213665  0.14670352    -0.72000
O591        O  0.62610322  0.65506112  0.14438724    -0.71800
O592        O  0.62273063  0.59270332  0.14789482    -0.71800
O593        O  0.62342304  0.59085151  0.11224808    -0.71800
O594        O  0.62632777  0.65329972  0.10874159    -0.71800
O595        O  0.65632171  0.62043486  0.11104498    -0.71800
O596        O  0.59359133  0.62344812  0.11012782    -0.72000
V597        V  0.62450195  0.62384286  0.14546511     1.35200
V598        V  0.62494800  0.62205443  0.11121246     1.35200
C599        C  0.58276942  0.62487131  0.12787566     0.77500
C600        C  0.66665945  0.62066564  0.12911343     0.77500
C601        C  0.62628096  0.66486418  0.12601217     0.77400
C602        C  0.62242222  0.58115182  0.13063601     0.77400
O603        O  0.64848400  0.37753963  0.10484915    -0.71800
O604        O  0.58633502  0.37338555  0.11051193    -0.72000
O605        O  0.61564251  0.40628522  0.11041689    -0.71800
O606        O  0.61919122  0.34421305  0.10463816    -0.71800
O607        O  0.61864085  0.34107579  0.14024267    -0.71800
O608        O  0.62275347  0.40333161  0.14529953    -0.71800
O609        O  0.58978663  0.37435538  0.14595488    -0.71800
O610        O  0.65178501  0.37025585  0.13944872    -0.72000
V611        V  0.61745659  0.37524784  0.10822049     1.35200
V612        V  0.62068786  0.37225899  0.14212627     1.35200
C613        C  0.66093203  0.37412984  0.12118246     0.77500
C614        C  0.57740146  0.37439519  0.12929331     0.77500
C615        C  0.61920284  0.41540353  0.12872126     0.77400
C616        C  0.61902277  0.33206276  0.12152271     0.77400
O617        O  0.34309171  0.62338554  0.89494116    -0.71800
O618        O  0.40560343  0.62330740  0.89567469    -0.72000
O619        O  0.37434049  0.65447537  0.89732447    -0.71800
O620        O  0.37463578  0.59240916  0.89338942    -0.71800
O621        O  0.37413905  0.59461956  0.85775121    -0.71800
O622        O  0.37572916  0.65697623  0.86205393    -0.71800
O623        O  0.40586064  0.62492559  0.85996864    -0.71800
O624        O  0.34367859  0.62661262  0.85936545    -0.72000
V625        V  0.37437867  0.62346046  0.89465417     1.35200
V626        V  0.37479918  0.62576127  0.86046160     1.35200
C627        C  0.33276993  0.62506797  0.87697354     0.77500
C628        C  0.41629166  0.62375726  0.87784525     0.77500
C629        C  0.37540733  0.66656931  0.88048181     0.77400
C630        C  0.37471308  0.58290894  0.87495509     0.77400
O631        O  0.59236012  0.61894766  0.89257022    -0.71800
O632        O  0.65466585  0.61997710  0.89214574    -0.72000
O633        O  0.62283316  0.65103387  0.89277937    -0.71800
O634        O  0.62401352  0.58835614  0.89168767    -0.71800
O635        O  0.62304657  0.58907177  0.85615165    -0.71800
O636        O  0.62288358  0.65164370  0.85704896    -0.71800
O637        O  0.65461308  0.62066618  0.85661631    -0.71800
O638        O  0.59202459  0.62041734  0.85696604    -0.72000
V639        V  0.62348841  0.61964980  0.89160438     1.35200
V640        V  0.62323582  0.62039089  0.85736882     1.35200
C641        C  0.58151022  0.61958906  0.87489645     0.77500
C642        C  0.66544961  0.62036748  0.87439995     0.77500
C643        C  0.62231444  0.66196127  0.87503681     0.77400
C644        C  0.62324600  0.57791003  0.87373022     0.77400
O645        O  0.66225919  0.37011470  0.85910474    -0.71800
O646        O  0.59965797  0.36967713  0.85932501    -0.72000
O647        O  0.63073019  0.40114806  0.85997848    -0.71800
O648        O  0.63126265  0.33886829  0.85811104    -0.71800
O649        O  0.63172348  0.33749948  0.89379767    -0.71800
O650        O  0.63042284  0.40029911  0.89568012    -0.71800
O651        O  0.59980408  0.36821713  0.89500877    -0.71800
O652        O  0.66225290  0.36953448  0.89478282    -0.72000
V653        V  0.63097334  0.36996415  0.85984522     1.35200
V654        V  0.63104886  0.36891572  0.89414132     1.35200
C655        C  0.67293320  0.36978504  0.87695126     0.77500
C656        C  0.58906908  0.36870137  0.87723263     0.77500
C657        C  0.63021606  0.41138501  0.87802661     0.77400
C658        C  0.63187125  0.32754097  0.87551826     0.77400
O659        O  0.38224691  0.40758859  0.89479396    -0.71800
O660        O  0.38164775  0.34497397  0.89702965    -0.72000
O661        O  0.41303604  0.37573564  0.89489721    -0.71800
O662        O  0.35048666  0.37681295  0.89722114    -0.71800
O663        O  0.34920108  0.37655130  0.86151904    -0.71800
O664        O  0.41176899  0.37338314  0.85930591    -0.71800
O665        O  0.37894175  0.34399987  0.86153557    -0.71800
O666        O  0.38208814  0.40617444  0.85912325    -0.72000
V667        V  0.38178521  0.37627574  0.89531305     1.35200
V668        V  0.38051631  0.37509432  0.86107066     1.35200
C669        C  0.38243254  0.41752535  0.87648864     0.77500
C670        C  0.38042440  0.33375883  0.87955782     0.77500
C671        C  0.42305296  0.37383125  0.87677523     0.77400
C672        C  0.33919015  0.37696433  0.87976969     0.77400
C673        C  0.56469603  0.36801475  0.87736426     0.01400
C674        C  0.55255655  0.38314715  0.89013265     0.04200
C675        C  0.52938666  0.38285456  0.88962304    -0.11900
C676        C  0.51819256  0.36743148  0.87646360     0.23500
C677        C  0.53025342  0.35186710  0.86428280    -0.12500
C678        C  0.55343316  0.35212548  0.86474003     0.04900
C679        C  0.49373031  0.36786521  0.87541941     0.27300
C680        C  0.48117114  0.35443639  0.88954929    -0.13100
C681        C  0.45804846  0.35611190  0.88971111     0.05400
C682        C  0.44736098  0.37170303  0.87613702    -0.09100
C683        C  0.46000765  0.38499341  0.86184865     0.06200
C684        C  0.48305145  0.38259984  0.86106136    -0.13500
Br685      Br  0.51489925  0.33009558  0.84713501    -0.05500
Br686      Br  0.56749291  0.40486928  0.90779423     0.00100
Br687      Br  0.44111147  0.33632440  0.90796247     0.00500
Br688      Br  0.50014381  0.39924820  0.84009206    -0.03900
Br689      Br  0.56968731  0.32985481  0.84902876     0.00600
Br690      Br  0.51278714  0.40360248  0.90697537    -0.03200
Br691      Br  0.49578652  0.33363448  0.90856273    -0.04000
Br692      Br  0.44609681  0.40773629  0.84460383    -0.00100
C693        C  0.62859604  0.43572632  0.87814194     0.01400
C694        C  0.64420920  0.44873970  0.88937355     0.04200
C695        C  0.64294659  0.47190060  0.88831949    -0.11900
C696        C  0.62581953  0.48215045  0.87650723     0.23500
C697        C  0.60985979  0.46917199  0.86590630    -0.12500
C698        C  0.61143926  0.44608486  0.86638118     0.04900
C699        C  0.62448078  0.50659357  0.87530479     0.27300
C700        C  0.61315643  0.51836480  0.89164869    -0.13100
C701        C  0.61218527  0.54152598  0.89082919     0.05400
C702        C  0.62263633  0.55325725  0.87348864    -0.09100
C703        C  0.63266451  0.54109262  0.85624967     0.06200
C704        C  0.63397364  0.51795635  0.85749013    -0.13500
Br705      Br  0.58549625  0.48314541  0.85115621    -0.05500
Br706      Br  0.66788401  0.43499129  0.90541205     0.00100
Br707      Br  0.59480206  0.55659928  0.91275205     0.00500
Br708      Br  0.64904372  0.50157149  0.83484010    -0.03900
Br709      Br  0.58952811  0.42867707  0.85139124     0.00600
Br710      Br  0.66469053  0.48979202  0.90291232    -0.03200
Br711      Br  0.59867241  0.50241116  0.91503030    -0.04000
Br712      Br  0.64459391  0.55537990  0.83050111    -0.00100
C713        C  0.37602588  0.55868919  0.87382403     0.01400
C714        C  0.36252588  0.54570757  0.88761345     0.04200
C715        C  0.36486583  0.52273032  0.88781277    -0.11900
C716        C  0.38037023  0.51254037  0.87397438     0.23500
C717        C  0.39389333  0.52539709  0.86020232    -0.12500
C718        C  0.39181950  0.54845198  0.86016430     0.04900
C719        C  0.38192094  0.48821776  0.87365499     0.27300
C720        C  0.39765610  0.47732557  0.88669152    -0.13100
C721        C  0.39801326  0.45417897  0.88754394     0.05400
C722        C  0.38259908  0.44184742  0.87528893    -0.09100
C723        C  0.36716660  0.45289010  0.86184411     0.06200
C724        C  0.36679500  0.47599455  0.86114512    -0.13500
Br725      Br  0.41557492  0.51133940  0.84177491    -0.05500
Br726      Br  0.34017085  0.55915912  0.90575983     0.00100
Br727      Br  0.42025838  0.43954359  0.90482409     0.00500
Br728      Br  0.34510876  0.49111360  0.84352903    -0.03900
Br729      Br  0.41168094  0.56585878  0.84240300     0.00600
Br730      Br  0.34701546  0.50503932  0.90728345    -0.03200
Br731      Br  0.41847159  0.49431114  0.90357494    -0.04000
Br732      Br  0.34562304  0.43662677  0.84513614    -0.00100
C733        C  0.44041931  0.62289056  0.87765187     0.01400
C734        C  0.45151024  0.60475831  0.88694919     0.04200
C735        C  0.47457291  0.60364301  0.88587566    -0.11900
C736        C  0.48648680  0.62052304  0.87537050     0.23500
C737        C  0.47539969  0.63848636  0.86585632    -0.12500
C738        C  0.45238532  0.63978222  0.86717445     0.04900
C739        C  0.51077326  0.61997048  0.87530166     0.27300
C740        C  0.52240632  0.63119201  0.89177743    -0.13100
C741        C  0.54551273  0.63119398  0.89169000     0.05400
C742        C  0.55713525  0.61948982  0.87521821    -0.09100
C743        C  0.54525360  0.60772747  0.85902257     0.06200
C744        C  0.52213039  0.60826964  0.85893638    -0.13500
Br745      Br  0.49185063  0.66131370  0.85110380    -0.05500
Br746      Br  0.43518626  0.58100724  0.90035647     0.00100
Br747      Br  0.56068533  0.64822055  0.91380801     0.00500
Br748      Br  0.50580149  0.59292181  0.83647869    -0.03900
Br749      Br  0.43733804  0.66527017  0.85561532     0.00600
Br750      Br  0.48999638  0.57904814  0.89873406    -0.03200
Br751      Br  0.50639047  0.64659236  0.91449793    -0.04000
Br752      Br  0.56021485  0.58958939  0.83764869    -0.00100
C753        C  0.62092841  0.55686010  0.13181115     0.01400
C754        C  0.63589554  0.54476014  0.14483991     0.04200
C755        C  0.63534093  0.52160677  0.14471448    -0.11900
C756        C  0.61937211  0.51042268  0.13222486     0.23500
C757        C  0.60407260  0.52245039  0.11965719    -0.12500
C758        C  0.60488716  0.54559208  0.11935708     0.04900
C759        C  0.61927529  0.48599197  0.13161721     0.27300
C760        C  0.63353569  0.47487127  0.11714775    -0.13100
C761        C  0.63385036  0.45176860  0.11668578     0.05400
C762        C  0.61955838  0.43961826  0.13036215    -0.09100
C763        C  0.60520305  0.45071575  0.14483861     0.06200
C764        C  0.60513994  0.47388844  0.14551647    -0.13500
Br765      Br  0.58234304  0.50707096  0.10241811    -0.05500
Br766      Br  0.65788222  0.55968792  0.16217029     0.00100
Br767      Br  0.65464711  0.43673460  0.09797474     0.00500
Br768      Br  0.58551733  0.48916720  0.16521858    -0.03900
Br769      Br  0.58340465  0.56177992  0.10245755     0.00600
Br770      Br  0.65707375  0.50502789  0.16086976    -0.03200
Br771      Br  0.65253500  0.49140134  0.09779084    -0.04000
Br772      Br  0.58487055  0.43428340  0.16293534    -0.00100
C773        C  0.55834311  0.62552428  0.12795415     0.01400
C774        C  0.54685121  0.64073698  0.11463641     0.04200
C775        C  0.52366283  0.64152194  0.11521858    -0.11900
C776        C  0.51182362  0.62715167  0.12906505     0.23500
C777        C  0.52322927  0.61218774  0.14256312    -0.12500
C778        C  0.54637142  0.61122617  0.14191009     0.04900
C779        C  0.48733803  0.62743341  0.12917054     0.27300
C780        C  0.47583870  0.64219368  0.14282531    -0.13100
C781        C  0.45263907  0.64233011  0.14297749     0.05400
C782        C  0.44081902  0.62757565  0.12950362    -0.09100
C783        C  0.45241857  0.61263572  0.11601270     0.06200
C784        C  0.47557503  0.61263288  0.11582160    -0.13500
Br785      Br  0.50694659  0.59313636  0.16211736    -0.05500
Br786      Br  0.56274256  0.66130906  0.09635715     0.00100
Br787      Br  0.43722072  0.66350655  0.16087408     0.00500
Br788      Br  0.49131859  0.59221265  0.09734414    -0.03900
Br789      Br  0.56144494  0.58943122  0.15943508     0.00600
Br790      Br  0.50793373  0.66253667  0.09736409    -0.03200
Br791      Br  0.49205507  0.66223103  0.16126629    -0.04000
Br792      Br  0.43671018  0.59132455  0.09847319    -0.00100
C793        C  0.55312235  0.37601294  0.13166082     0.01400
C794        C  0.54069787  0.38851900  0.11638906     0.04200
C795        C  0.51761531  0.38910985  0.11793890    -0.11900
C796        C  0.50684915  0.37812156  0.13523520     0.23500
C797        C  0.51911580  0.36682327  0.15123079    -0.12500
C798        C  0.54214075  0.36541269  0.14933532     0.04900
C799        C  0.48251814  0.37723346  0.13576807     0.27300
C800        C  0.47039037  0.39323298  0.14728597    -0.13100
C801        C  0.44724562  0.39273385  0.14685671     0.05400
C802        C  0.43624651  0.37609301  0.13501461    -0.09100
C803        C  0.44846757  0.35951157  0.12437066     0.06200
C804        C  0.47155890  0.36023317  0.12455869    -0.13500
Br805      Br  0.50406026  0.35299063  0.17557795    -0.05500
Br806      Br  0.55492762  0.40612728  0.09399621     0.00100
Br807      Br  0.43074519  0.41540958  0.16171562     0.00500
Br808      Br  0.48836231  0.33800393  0.10936469    -0.03900
Br809      Br  0.55798346  0.34785920  0.17056654     0.00600
Br810      Br  0.50048641  0.40469913  0.09617895    -0.03200
Br811      Br  0.48560349  0.41585014  0.16345922    -0.04000
Br812      Br  0.43367720  0.33509922  0.11051942    -0.00100
C813        C  0.37160688  0.44308040  0.12829207     0.01400
C814        C  0.38732944  0.45399259  0.11495192     0.04200
C815        C  0.38769253  0.47715743  0.11374346    -0.11900
C816        C  0.37248125  0.48972452  0.12588309     0.23500
C817        C  0.35708063  0.47897987  0.13953344    -0.12500
C818        C  0.35665548  0.45579204  0.14082168     0.04900
C819        C  0.37347706  0.51425977  0.12515457     0.27300
C820        C  0.38932676  0.52550964  0.13776297    -0.13100
C821        C  0.39041304  0.54864519  0.13723493     0.05400
C822        C  0.37542466  0.56081191  0.12431386    -0.09100
C823        C  0.35989132  0.54953235  0.11123279     0.06200
C824        C  0.35888141  0.52634225  0.11173608    -0.13500
Br825      Br  0.33676385  0.49623418  0.15676204    -0.05500
Br826      Br  0.40961039  0.43749143  0.09944937     0.00100
Br827      Br  0.41336639  0.56354751  0.15330073     0.00500
Br828      Br  0.33730643  0.51106576  0.09423630    -0.03900
Br829      Br  0.33511855  0.44171128  0.15949214     0.00600
Br830      Br  0.40948089  0.49190563  0.09586772    -0.03200
Br831      Br  0.40955337  0.50907150  0.15588310    -0.04000
Br832      Br  0.33938913  0.56575202  0.09316517    -0.00100
C833        C  0.80867687  0.61926334  0.12841213     0.01400
C834        C  0.79633940  0.63102378  0.11265379     0.04200
C835        C  0.77315874  0.63082597  0.11353203    -0.11900
C836        C  0.76213182  0.61860503  0.12991086     0.23500
C837        C  0.77442302  0.60704781  0.14580481    -0.12500
C838        C  0.79760583  0.60767582  0.14529579     0.04900
C839        C  0.73761017  0.61838399  0.13060590     0.27300
C840        C  0.72618963  0.63527865  0.14157278    -0.13100
C841        C  0.70302297  0.63590882  0.14119296     0.05400
C842        C  0.69105199  0.61960490  0.12980424    -0.09100
C843        C  0.70249277  0.60224445  0.11944531     0.06200
C844        C  0.72570632  0.60167703  0.11983018    -0.13500
Br845      Br  0.75939329  0.59029799  0.16822503    -0.05500
Br846      Br  0.81107274  0.64666600  0.08924754     0.00100
Br847      Br  0.68780040  0.65973260  0.15561243     0.00500
Br848      Br  0.74135969  0.57796479  0.10573921    -0.03900
Br849      Br  0.81412953  0.59380081  0.16861919     0.00600
Br850      Br  0.75633148  0.64720469  0.09219945    -0.03200
Br851      Br  0.74245340  0.65767169  0.15701963    -0.04000
Br852      Br  0.68642927  0.57856111  0.10576117    -0.00100
C853        C  0.69010597  0.62054796  0.87453674     0.01400
C854        C  0.70193789  0.62990787  0.89242711     0.04200
C855        C  0.72510197  0.63075110  0.89197312    -0.11900
C856        C  0.73680668  0.62180003  0.87418947     0.23500
C857        C  0.72536780  0.61202607  0.85667915    -0.12500
C858        C  0.70219100  0.61125888  0.85682155     0.04900
C859        C  0.76126559  0.62209920  0.87429745     0.27300
C860        C  0.77278059  0.63921810  0.86375650    -0.13100
C861        C  0.79597648  0.63935056  0.86363214     0.05400
C862        C  0.80782887  0.62270160  0.87486302    -0.09100
C863        C  0.79606741  0.60622425  0.88642919     0.06200
C864        C  0.77293521  0.60560630  0.88559168    -0.13500
Br865      Br  0.74173711  0.59944097  0.83253530    -0.05500
Br866      Br  0.68727889  0.64176984  0.91804455     0.00100
Br867      Br  0.81108225  0.66209463  0.84733610     0.00500
Br868      Br  0.75702123  0.58225461  0.90015256    -0.03900
Br869      Br  0.68771172  0.59577181  0.83324354     0.00600
Br870      Br  0.74118118  0.64437824  0.91572707    -0.03200
Br871      Br  0.75652092  0.66267285  0.84981946    -0.04000
Br872      Br  0.81124818  0.58551369  0.90517009    -0.00100
C873        C  0.87277258  0.61859951  0.94143995     0.01400
C874        C  0.86070314  0.63450420  0.95346598     0.04200
C875        C  0.86085587  0.63426413  0.97667376    -0.11900
C876        C  0.87223214  0.61766042  0.98813974     0.23500
C877        C  0.88369257  0.60141204  0.97629729    -0.12500
C878        C  0.88424335  0.60198254  0.95310330     0.04900
C879        C  0.87243830  0.61734522  0.01268433     0.27300
C880        C  0.88927813  0.62825984  0.02423577    -0.13100
C881        C  0.89001476  0.62735028  0.04738893     0.05400
C882        C  0.87382292  0.61554702  0.05924376    -0.09100
C883        C  0.85690535  0.60465662  0.04763317     0.06200
C884        C  0.85619365  0.60564746  0.02444474    -0.13500
Br885      Br  0.89890593  0.57847536  0.99214017    -0.05500
Br886      Br  0.84265975  0.65594448  0.93845919     0.00100
Br887      Br  0.91391932  0.64152292  0.06273556     0.00500
Br888      Br  0.83278978  0.59127383  0.00860817    -0.03900
Br889      Br  0.90183478  0.58049013  0.93773028     0.00600
Br890      Br  0.84565795  0.65684754  0.99295554    -0.03200
Br891      Br  0.91134129  0.64452087  0.00816913    -0.04000
Br892      Br  0.83406166  0.58920225  0.06341026    -0.00100
C893        C  0.30850822  0.62511633  0.87640838     0.01400
C894        C  0.29653279  0.64046840  0.88899982     0.04200
C895        C  0.27338180  0.64040313  0.88840822    -0.11900
C896        C  0.26216693  0.62547720  0.87472065     0.23500
C897        C  0.27413423  0.61042043  0.86183245    -0.12500
C898        C  0.29723925  0.60999148  0.86292195     0.04900
C899        C  0.23775273  0.62505550  0.87435069     0.27300
C900        C  0.22628943  0.61076710  0.88850964    -0.13100
C901        C  0.20315366  0.60982458  0.88788207     0.05400
C902        C  0.19127062  0.62305200  0.87287568    -0.09100
C903        C  0.20293977  0.63734438  0.85861120     0.06200
C904        C  0.22607316  0.63850076  0.85957087    -0.13500
Br905      Br  0.25873227  0.59028837  0.84279137    -0.05500
Br906      Br  0.31180929  0.66234236  0.90617062     0.00100
Br907      Br  0.18805991  0.59121491  0.90857395     0.00500
Br908      Br  0.24196255  0.65858078  0.84074616    -0.03900
Br909      Br  0.31331865  0.58780869  0.84686816     0.00600
Br910      Br  0.25691604  0.66060164  0.90644842    -0.03200
Br911      Br  0.24254324  0.59274152  0.90902800    -0.04000
Br912      Br  0.18756211  0.65458726  0.83679878    -0.00100
C913        C  0.94052883  0.62008013  0.87453923     0.01400
C914        C  0.95174898  0.60929088  0.85731827     0.04200
C915        C  0.97492981  0.60911448  0.85681311    -0.11900
C916        C  0.98699598  0.61989187  0.87337617     0.23500
C917        C  0.97579753  0.63082458  0.89046628    -0.12500
C918        C  0.95263933  0.63099339  0.89101965     0.04900
C919        C  0.01146021  0.62047786  0.87247257     0.27300
C920        C  0.02389857  0.60337129  0.88183716    -0.13100
C921        C  0.04708136  0.60423725  0.88150256     0.05400
C922        C  0.05812774  0.62230670  0.87159981    -0.09100
C923        C  0.04537321  0.64008417  0.86338807     0.06200
C924        C  0.02221703  0.63878192  0.86325521    -0.13500
Br925      Br  0.99233781  0.64571621  0.91304059    -0.05500
Br926      Br  0.93542126  0.59617387  0.83349437     0.00100
Br927      Br  0.06325370  0.58159356  0.89692371     0.00500
Br928      Br  0.00489781  0.66211223  0.85034919    -0.03900
Br929      Br  0.93755589  0.64591547  0.91462237     0.00600
Br930      Br  0.99027561  0.59454177  0.83319465    -0.03200
Br931      Br  0.00893201  0.57892593  0.89556816    -0.04000
Br932      Br  0.05881562  0.66690696  0.85301202    -0.00100
C933        C  0.30845364  0.62647692  0.12474107     0.01400
C934        C  0.29618833  0.60950279  0.13478676     0.04200
C935        C  0.27306691  0.60954410  0.13343279    -0.11900
C936        C  0.26212585  0.62643937  0.12189011     0.23500
C937        C  0.27439569  0.64305982  0.11136301    -0.12500
C938        C  0.29747356  0.64326604  0.11300805     0.04900
C939        C  0.23770405  0.62679381  0.12091496     0.27300
C940        C  0.22649436  0.61301942  0.10611074    -0.13100
C941        C  0.20334141  0.61256243  0.10591177     0.05400
C942        C  0.19120989  0.62630904  0.12022014    -0.09100
C943        C  0.20254658  0.64095698  0.13426004     0.06200
C944        C  0.22571860  0.64094299  0.13479553    -0.13500
Br945      Br  0.25948285  0.66530137  0.09429962    -0.05500
Br946      Br  0.31104211  0.58550857  0.14938867     0.00100
Br947      Br  0.18843008  0.59370850  0.08520051     0.00500
Br948      Br  0.24121388  0.66008969  0.15480667    -0.03900
Br949      Br  0.31383275  0.66719072  0.09991561     0.00600
Br950      Br  0.25632356  0.58620750  0.14702038    -0.03200
Br951      Br  0.24305419  0.59498274  0.08591049    -0.04000
Br952      Br  0.18663640  0.66057039  0.15349065    -0.00100
C953        C  0.94131139  0.61286722  0.12533154     0.01400
C954        C  0.95262644  0.59949186  0.11004379     0.04200
C955        C  0.97583885  0.59910032  0.10978271    -0.11900
C956        C  0.98787222  0.61172919  0.12500970     0.23500
C957        C  0.97662342  0.62430928  0.14086068    -0.12500
C958        C  0.95345696  0.62502007  0.14094577     0.04900
C959        C  0.01234088  0.61260726  0.12389163     0.27300
C960        C  0.02520263  0.59948107  0.13799774    -0.13100
C961        C  0.04828464  0.60174169  0.13819323     0.05400
C962        C  0.05878883  0.61633673  0.12335584    -0.09100
C963        C  0.04582336  0.62891612  0.10867852     0.06200
C964        C  0.02270173  0.62740123  0.10934136    -0.13500
Br965      Br  0.99315301  0.64058646  0.16248940    -0.05500
Br966      Br  0.93650997  0.58235041  0.08877862     0.00100
Br967      Br  0.06510603  0.58591684  0.16002274     0.00500
Br968      Br  0.00500908  0.64584253  0.09049413    -0.03900
Br969      Br  0.93845888  0.64196748  0.16318430     0.00600
Br970      Br  0.99133228  0.58150534  0.08840872    -0.03200
Br971      Br  0.01103418  0.57843887  0.15712021    -0.04000
Br972      Br  0.05948713  0.64749938  0.08676837    -0.00100
C973        C  0.12339881  0.61809987  0.05564780     0.01400
C974        C  0.13837700  0.63048799  0.04285015     0.04200
C975        C  0.13752548  0.62962323  0.01969023    -0.11900
C976        C  0.12093475  0.61743417  0.00906677     0.23500
C977        C  0.10589637  0.60511757  0.02178843    -0.12500
C978        C  0.10753746  0.60490182  0.04495251     0.04900
C979        C  0.11975478  0.61726269  0.98451025     0.27300
C980        C  0.11009165  0.63494633  0.97307790    -0.13100
C981        C  0.11055916  0.63565369  0.94985511     0.05400
C982        C  0.12051690  0.61837892  0.93768517    -0.09100
C983        C  0.12849904  0.59974047  0.94938836     0.06200
C984        C  0.12873509  0.59960766  0.97259793    -0.13500
Br985      Br  0.08285997  0.58877283  0.00737377    -0.05500
Br986      Br  0.16078148  0.64798111  0.05693349     0.00100
Br987      Br  0.09586164  0.65972868  0.93513799     0.00500
Br988      Br  0.14199989  0.57539703  0.98835239    -0.03900
Br989      Br  0.08766011  0.58681094  0.06192325     0.00600
Br990      Br  0.15957948  0.64450850  0.00232031    -0.03200
Br991      Br  0.09599401  0.65816319  0.98949117    -0.04000
Br992      Br  0.13893416  0.57378158  0.93442386    -0.00100
C993        C  0.62385403  0.19065462  0.11729833     0.01400
C994        C  0.61661834  0.20235532  0.09861278     0.04200
C995        C  0.61668480  0.22550845  0.09859656    -0.11900
C996        C  0.62287079  0.23709683  0.11765721     0.23500
C997        C  0.62940004  0.22539716  0.13660747    -0.12500
C998        C  0.63037555  0.20223862  0.13626564     0.04900
C999        C  0.62180331  0.26154600  0.11798643     0.27300
C1000       C  0.64099961  0.27415997  0.11465158    -0.13100
C1001       C  0.64000395  0.29728208  0.11555235     0.05400
C1002       C  0.61978150  0.30789168  0.11950252    -0.09100
C1003       C  0.60046107  0.29533446  0.12197403     0.06200
C1004       C  0.60149657  0.27220584  0.12147588    -0.13500
Br1005     Br  0.63601494  0.24115455  0.16329799    -0.05500
Br1006     Br  0.60632942  0.18666851  0.07307969     0.00100
Br1007     Br  0.66638553  0.31448782  0.11163302     0.00500
Br1008     Br  0.57513150  0.25501560  0.12565359    -0.03900
Br1009     Br  0.63958142  0.18633625  0.16213837     0.00600
Br1010     Br  0.60808866  0.24147865  0.07254466    -0.03200
Br1011     Br  0.66860346  0.25971501  0.10869320    -0.04000
Br1012     Br  0.57249156  0.30986810  0.12524285    -0.00100
C1013       C  0.63426566  0.18605613  0.86556190     0.01400
C1014       C  0.64765949  0.19689036  0.88116577     0.04200
C1015       C  0.64813431  0.22004796  0.88204803    -0.11900
C1016       C  0.63539679  0.23258543  0.86730926     0.23500
C1017       C  0.62294375  0.22188722  0.85099194    -0.12500
C1018       C  0.62225689  0.19870983  0.85016853     0.04900
C1019       C  0.63456999  0.25698309  0.86946765     0.27300
C1020       C  0.61800370  0.26687330  0.88235058    -0.13100
C1021       C  0.61730720  0.28992055  0.88478297     0.05400
C1022       C  0.63312149  0.30323959  0.87417675    -0.09100
C1023       C  0.64974233  0.29329240  0.86132690     0.06200
C1024       C  0.65042090  0.27026059  0.85895911    -0.13500
Br1025     Br  0.60710528  0.23919836  0.82961399    -0.05500
Br1026     Br  0.66469984  0.18020563  0.90214284     0.00100
Br1027     Br  0.59404298  0.30320226  0.90180709     0.00500
Br1028     Br  0.67298476  0.25680196  0.84119008    -0.03900
Br1029     Br  0.60568121  0.18443592  0.82720888     0.00600
Br1030     Br  0.66614347  0.23479151  0.90357766    -0.03200
Br1031     Br  0.59604083  0.24869482  0.89635862    -0.04000
Br1032     Br  0.67223609  0.31113885  0.84762963    -0.00100
C1033       C  0.62822846  0.12121580  0.93245294     0.01400
C1034       C  0.61554645  0.13759960  0.94300185     0.04200
C1035       C  0.61454332  0.13852444  0.96614448    -0.11900
C1036       C  0.62639336  0.12332099  0.97899589     0.23500
C1037       C  0.63903126  0.10692401  0.96855191    -0.12500
C1038       C  0.63976135  0.10569766  0.94537725     0.04900
C1039       C  0.62513329  0.12426298  0.00349790     0.27300
C1040       C  0.63962519  0.13781567  0.01541877    -0.13100
C1041       C  0.63877034  0.13828777  0.03860857     0.05400
C1042       C  0.62325406  0.12520257  0.05013916    -0.09100
C1043       C  0.60844559  0.11195134  0.03802734     0.06200
C1044       C  0.60931907  0.11165683  0.01484456    -0.13500
Br1045     Br  0.65514824  0.08600407  0.98616589    -0.05500
Br1046     Br  0.60003451  0.15940752  0.92588700     0.00100
Br1047     Br  0.65843382  0.15771178  0.05425509     0.00500
Br1048     Br  0.58866567  0.09411909  0.99837153    -0.03900
Br1049     Br  0.65527090  0.08175125  0.93147982     0.00600
Br1050     Br  0.59677405  0.16055842  0.98043298    -0.03200
Br1051     Br  0.66039334  0.15608396  0.99976293    -0.04000
Br1052     Br  0.58766435  0.09304813  0.05291939    -0.00100
C1053       C  0.62093884  0.68624656  0.87521649     0.01400
C1054       C  0.63978441  0.69888767  0.87980916     0.04200
C1055       C  0.63851794  0.72198391  0.88021358    -0.11900
C1056       C  0.61853475  0.73262200  0.87526476     0.23500
C1057       C  0.59965955  0.72004678  0.87053508    -0.12500
C1058       C  0.60087661  0.69690224  0.87040014     0.04900
C1059       C  0.61762782  0.75703164  0.87448716     0.27300
C1060       C  0.60995785  0.76895214  0.89278735    -0.13100
C1061       C  0.60977035  0.79208598  0.89225107     0.05400
C1062       C  0.61795372  0.80341802  0.87372234    -0.09100
C1063       C  0.62585733  0.79149342  0.85549508     0.06200
C1064       C  0.62511542  0.76834958  0.85564628    -0.13500
Br1065     Br  0.57216870  0.73467762  0.86438353    -0.05500
Br1066     Br  0.66768839  0.68463282  0.88404870     0.00100
Br1067     Br  0.59937490  0.80824665  0.91740955     0.00500
Br1068     Br  0.63403022  0.75203628  0.82996012    -0.03900
Br1069     Br  0.57510679  0.67988525  0.86328343     0.00600
Br1070     Br  0.66409924  0.73915294  0.88780598    -0.03200
Br1071     Br  0.60015583  0.75350812  0.91874847    -0.04000
Br1072     Br  0.63769822  0.80683973  0.83031868    -0.00100
C1073       C  0.62307596  0.93582678  0.87308161     0.01400
C1074       C  0.61000399  0.94704307  0.85739331     0.04200
C1075       C  0.61088711  0.97014319  0.85578367    -0.11900
C1076       C  0.62487666  0.98225583  0.86965175     0.23500
C1077       C  0.63794212  0.97117641  0.88527557    -0.12500
C1078       C  0.63715856  0.94805300  0.88693871     0.04900
C1079       C  0.62534480  0.00671947  0.86828115     0.27300
C1080       C  0.64022928  0.01744656  0.85408555    -0.13100
C1081       C  0.64096102  0.04062497  0.85324995     0.05400
C1082       C  0.62692542  0.05327711  0.86685442    -0.09100
C1083       C  0.61187265  0.04238321  0.88090902     0.06200
C1084       C  0.61085390  0.01923184  0.88128274    -0.13500
Br1085     Br  0.65651190  0.98789014  0.90479224    -0.05500
Br1086     Br  0.59158336  0.93094456  0.83715130     0.00100
Br1087     Br  0.66058166  0.05482275  0.83262502     0.00500
Br1088     Br  0.58935573  0.00440438  0.89938870    -0.03900
Br1089     Br  0.65469331  0.93341574  0.90900599     0.00600
Br1090     Br  0.59272140  0.98542784  0.83471551    -0.03200
Br1091     Br  0.65928738  0.00020978  0.83546319    -0.04000
Br1092     Br  0.59354839  0.05888514  0.90087626    -0.00100
C1093       C  0.61896930  0.80684606  0.12728192     0.01400
C1094       C  0.63356553  0.79540429  0.14135609     0.04200
C1095       C  0.63539311  0.77230745  0.14013998    -0.11900
C1096       C  0.62297145  0.76040950  0.12465589     0.23500
C1097       C  0.60847724  0.77170969  0.11054789    -0.12500
C1098       C  0.60603172  0.79473140  0.11218328     0.04900
C1099       C  0.62383610  0.73587487  0.12440584     0.27300
C1100       C  0.63967142  0.72463460  0.11170805    -0.13100
C1101       C  0.64046880  0.70139930  0.11192538     0.05400
C1102       C  0.62544108  0.68928640  0.12496611    -0.09100
C1103       C  0.60927963  0.70064573  0.13721347     0.06200
C1104       C  0.60860320  0.72378193  0.13702935    -0.13500
Br1105     Br  0.59222735  0.75544228  0.08871092    -0.05500
Br1106     Br  0.65009773  0.81108192  0.16343772     0.00100
Br1107     Br  0.66267035  0.68635135  0.09494788     0.00500
Br1108     Br  0.58670969  0.73909589  0.15414631    -0.03900
Br1109     Br  0.58504890  0.80934469  0.09333418     0.00600
Br1110     Br  0.65473148  0.75673012  0.15990413    -0.03200
Br1111     Br  0.66030299  0.74122814  0.09416368    -0.04000
Br1112     Br  0.58703585  0.68459200  0.15331903    -0.00100
C1113       C  0.61788841  0.94040112  0.12123637     0.01400
C1114       C  0.59830068  0.95247289  0.11645081     0.04200
C1115       C  0.59870676  0.97568948  0.11529793    -0.11900
C1116       C  0.61818737  0.98732926  0.11965412     0.23500
C1117       C  0.63751373  0.97576320  0.12470922    -0.12500
C1118       C  0.63765345  0.95255987  0.12502672     0.04900
C1119       C  0.61850402  0.01184252  0.11870354     0.27300
C1120       C  0.62698045  0.02270703  0.09999977    -0.13100
C1121       C  0.62825962  0.04583794  0.09948921     0.05400
C1122       C  0.62012773  0.05827518  0.11724959    -0.09100
C1123       C  0.61098189  0.04744661  0.13567133     0.06200
C1124       C  0.61077728  0.02429511  0.13666179    -0.13500
Br1125     Br  0.66393983  0.99217166  0.13143796    -0.05500
Br1126     Br  0.57043542  0.93817598  0.11081209     0.00100
Br1127     Br  0.64055456  0.06055785  0.07416424     0.00500
Br1128     Br  0.60058072  0.00955915  0.16289393    -0.03900
Br1129     Br  0.66563808  0.93854137  0.13078999     0.00600
Br1130     Br  0.57256472  0.99196575  0.10732067    -0.03200
Br1131     Br  0.63670622  0.00579668  0.07502635    -0.04000
Br1132     Br  0.59910491  0.06428127  0.15980735    -0.00100
C1133       C  0.61700611  0.86891854  0.05915909     0.01400
C1134       C  0.60927576  0.88683772  0.04665313     0.04200
C1135       C  0.60987365  0.88601450  0.02354393    -0.11900
C1136       C  0.61752166  0.86697359  0.01278934     0.23500
C1137       C  0.62476863  0.84881721  0.02528131    -0.12500
C1138       C  0.62491017  0.84993984  0.04842323     0.04900
C1139       C  0.61823350  0.86631887  0.98833378     0.27300
C1140       C  0.59899035  0.86208657  0.97633231    -0.13100
C1141       C  0.59915445  0.86298783  0.95314160     0.05400
C1142       C  0.61909245  0.86757683  0.94149773    -0.09100
C1143       C  0.63860038  0.87127471  0.95400816     0.06200
C1144       C  0.63798441  0.87081304  0.97719695    -0.13500
Br1145     Br  0.63439784  0.82242403  0.01058259    -0.05500
Br1146     Br  0.59876794  0.91295987  0.06119689     0.00100
Br1147     Br  0.57147949  0.85769267  0.93836465     0.00500
Br1148     Br  0.66423777  0.87675283  0.99414048    -0.03900
Br1149     Br  0.63567027  0.82534368  0.06535330     0.00600
Br1150     Br  0.60071571  0.91119725  0.00652427    -0.03200
Br1151     Br  0.57226793  0.85493885  0.99212567    -0.04000
Br1152     Br  0.66669176  0.87781569  0.94044148    -0.00100
C1153       C  0.19716446  0.38017184  0.87909052     0.01400
C1154       C  0.20816523  0.36968109  0.89667351     0.04200
C1155       C  0.23134324  0.36948372  0.89749583    -0.11900
C1156       C  0.24374068  0.37951307  0.88063165     0.23500
C1157       C  0.23280997  0.39034510  0.86329290    -0.12500
C1158       C  0.20962309  0.39104888  0.86272988     0.04900
C1159       C  0.26826422  0.37862830  0.88102651     0.27300
C1160       C  0.28047538  0.39636614  0.88959991    -0.13100
C1161       C  0.30367869  0.39576550  0.88941912     0.05400
C1162       C  0.31481661  0.37741257  0.88062832    -0.09100
C1163       C  0.30258238  0.35950287  0.87242890     0.06200
C1164       C  0.27939395  0.36017952  0.87248166    -0.13500
Br1165     Br  0.24977984  0.40371064  0.83998539    -0.05500
Br1166     Br  0.19150448  0.35651367  0.92035162     0.00100
Br1167     Br  0.32018569  0.42043074  0.90056609     0.00500
Br1168     Br  0.26275086  0.33596332  0.86057923    -0.03900
Br1169     Br  0.19514945  0.40646273  0.83913591     0.00600
Br1170     Br  0.24621040  0.35548817  0.92176726    -0.03200
Br1171     Br  0.26526722  0.42160318  0.90131137    -0.04000
Br1172     Br  0.31762420  0.33357392  0.86205451    -0.00100
C1173       C  0.30446181  0.37727168  0.12428527     0.01400
C1174       C  0.29398704  0.39612493  0.11576238     0.04200
C1175       C  0.27084740  0.39761899  0.11597853    -0.11900
C1176       C  0.25806829  0.37963447  0.12326665     0.23500
C1177       C  0.26861070  0.36026589  0.13047065    -0.12500
C1178       C  0.29171338  0.35938775  0.13174510     0.04900
C1179       C  0.23361241  0.38115562  0.12408451     0.27300
C1180       C  0.22283039  0.38383708  0.14445949    -0.13100
C1181       C  0.19967898  0.38307403  0.14559827     0.05400
C1182       C  0.18711753  0.38148242  0.12619918    -0.09100
C1183       C  0.19792736  0.38036165  0.10571856     0.06200
C1184       C  0.22104649  0.37907014  0.10473560    -0.13500
Br1185     Br  0.25128926  0.33485862  0.13840634    -0.05500
Br1186     Br  0.31139315  0.42019787  0.10445965     0.00100
Br1187     Br  0.18531540  0.38330465  0.17378527     0.00500
Br1188     Br  0.23543468  0.37331012  0.07706392    -0.03900
Br1189     Br  0.30586777  0.33362358  0.14367178     0.00600
Br1190     Br  0.25671315  0.42462310  0.10720812    -0.03200
Br1191     Br  0.23990312  0.38847448  0.17079837    -0.04000
Br1192     Br  0.18111300  0.38150577  0.07895050    -0.00100
C1193       C  0.12117192  0.37655174  0.06074913     0.01400
C1194       C  0.11044061  0.39314314  0.04838825     0.04200
C1195       C  0.11260472  0.39384708  0.02533092    -0.11900
C1196       C  0.12472086  0.37755623  0.01426304     0.23500
C1197       C  0.13458554  0.36041370  0.02630583    -0.12500
C1198       C  0.13263624  0.35967213  0.04940977     0.04900
C1199       C  0.12623395  0.37793354  0.98982868     0.27300
C1200       C  0.11120988  0.36566045  0.97721389    -0.13100
C1201       C  0.11249241  0.36594231  0.95410824     0.05400
C1202       C  0.12870560  0.37874380  0.94338131    -0.09100
C1203       C  0.14354161  0.39135184  0.95605415     0.06200
C1204       C  0.14242200  0.39073867  0.97922314    -0.13500
Br1205     Br  0.15121684  0.33816869  0.01093312    -0.05500
Br1206     Br  0.09085842  0.41377602  0.06252343     0.00100
Br1207     Br  0.09120390  0.34947974  0.93723993     0.00500
Br1208     Br  0.16320020  0.40717836  0.99664235    -0.03900
Br1209     Br  0.14596562  0.33531763  0.06494610     0.00600
Br1210     Br  0.09905862  0.41725623  0.00868695    -0.03200
Br1211     Br  0.08868109  0.34858163  0.99172568    -0.04000
Br1212     Br  0.16597398  0.40884584  0.94189975    -0.00100
C1213       C  0.81457760  0.36526690  0.87340563     0.01400
C1214       C  0.80147817  0.34946182  0.86243095     0.04200
C1215       C  0.77836247  0.35088762  0.86332966    -0.11900
C1216       C  0.76817644  0.36732505  0.87601872     0.23500
C1217       C  0.78111610  0.38173553  0.88862859    -0.12500
C1218       C  0.80421563  0.38055676  0.88753074     0.04900
C1219       C  0.74379903  0.36868801  0.87689725     0.27300
C1220       C  0.73245314  0.38352612  0.86318916    -0.13100
C1221       C  0.70928634  0.38403544  0.86328561     0.05400
C1222       C  0.69732710  0.36953903  0.87702876    -0.09100
C1223       C  0.70882985  0.35483710  0.89094803     0.06200
C1224       C  0.73197915  0.35465696  0.89104558    -0.13500
Br1225     Br  0.76704233  0.40286798  0.90762310    -0.05500
Br1226     Br  0.81457509  0.32529992  0.84684100     0.00100
Br1227     Br  0.69414963  0.40535760  0.84522263     0.00500
Br1228     Br  0.74774782  0.33519046  0.91058530    -0.03900
Br1229     Br  0.82148962  0.39834359  0.90738542     0.00600
Br1230     Br  0.76041876  0.33035755  0.84705088    -0.03200
Br1231     Br  0.74879121  0.40327428  0.84440470    -0.04000
Br1232     Br  0.69318554  0.33383797  0.90900262    -0.00100
C1233       C  0.06434803  0.37416263  0.87736663     0.01400
C1234       C  0.05216885  0.38773792  0.89183239     0.04200
C1235       C  0.02898296  0.38779392  0.89110132    -0.11900
C1236       C  0.01778934  0.37421315  0.87609178     0.23500
C1237       C  0.02977815  0.36025248  0.86210351    -0.12500
C1238       C  0.05293362  0.36012876  0.86276974     0.04900
C1239       C  0.99336221  0.37455452  0.87493705     0.27300
C1240       C  0.98090882  0.35954239  0.88740706    -0.13100
C1241       C  0.95780416  0.35923338  0.88564496     0.05400
C1242       C  0.94690489  0.37410972  0.87133238    -0.09100
C1243       C  0.95949028  0.39022148  0.86015348     0.06200
C1244       C  0.98263364  0.38987395  0.86130352    -0.13500
Br1245     Br  0.01423735  0.34155035  0.84172207    -0.05500
Br1246     Br  0.06698664  0.40541949  0.91361868     0.00100
Br1247     Br  0.94125522  0.33970646  0.90455230     0.00500
Br1248     Br  0.99987257  0.40990688  0.84362240    -0.03900
Br1249     Br  0.06866487  0.34126079  0.84284288     0.00600
Br1250     Br  0.01234426  0.40641880  0.91067440    -0.03200
Br1251     Br  0.99573768  0.33931018  0.90687563    -0.04000
Br1252     Br  0.94562586  0.41339608  0.84365606    -0.00100
C1253       C  0.68551766  0.37464391  0.11895531     0.01400
C1254       C  0.69590644  0.37073338  0.09833931     0.04200
C1255       C  0.71905377  0.37119095  0.09654987    -0.11900
C1256       C  0.73215314  0.37457201  0.11528712     0.23500
C1257       C  0.72210422  0.37833368  0.13574892    -0.12500
C1258       C  0.69900221  0.37900483  0.13758267     0.04900
C1259       C  0.75661507  0.37416145  0.11361309     0.27300
C1260       C  0.76812562  0.35452799  0.11747797    -0.13100
C1261       C  0.79135180  0.35418658  0.11712643     0.05400
C1262       C  0.80354617  0.37391220  0.11320160    -0.09100
C1263       C  0.79149334  0.39349789  0.10833329     0.06200
C1264       C  0.76826493  0.39352623  0.10884453    -0.13500
Br1265     Br  0.74035756  0.38255078  0.16139714    -0.05500
Br1266     Br  0.67920745  0.36374032  0.07218780     0.00100
Br1267     Br  0.80539146  0.32608525  0.12220105     0.00500
Br1268     Br  0.75195045  0.42031185  0.10347604    -0.03900
Br1269     Br  0.68663751  0.38737206  0.16567498     0.00600
Br1270     Br  0.73311526  0.36719802  0.06834210    -0.03200
Br1271     Br  0.75161761  0.32809211  0.12394731    -0.04000
Br1272     Br  0.80575552  0.42072170  0.09999812    -0.00100
C1273       C  0.93664959  0.37585809  0.12230634     0.01400
C1274       C  0.94893659  0.38486625  0.10478297     0.04200
C1275       C  0.97210260  0.38478831  0.10552184    -0.11900
C1276       C  0.98313503  0.37602025  0.12394317     0.23500
C1277       C  0.97084582  0.36727049  0.14160272    -0.12500
C1278       C  0.94766309  0.36708298  0.14075032     0.04900
C1279       C  0.00764196  0.37624483  0.12489775     0.27300
C1280       C  0.01989916  0.35941711  0.11476845    -0.13100
C1281       C  0.04309411  0.35979147  0.11538582     0.05400
C1282       C  0.05426675  0.37665654  0.12689813    -0.09100
C1283       C  0.04179975  0.39304987  0.13777259     0.06200
C1284       C  0.01865568  0.39315604  0.13620756    -0.13500
Br1285     Br  0.98591833  0.35569454  0.16701476    -0.05500
Br1286     Br  0.93401204  0.39681424  0.07943655     0.00100
Br1287     Br  0.05925141  0.33761331  0.09940632     0.00500
Br1288     Br  0.00182495  0.41661380  0.14939037    -0.03900
Br1289     Br  0.93098272  0.35567875  0.16527692     0.00600
Br1290     Br  0.98879709  0.39664976  0.08125907    -0.03200
Br1291     Br  0.00472802  0.33583396  0.09996516    -0.04000
Br1292     Br  0.05601148  0.41453661  0.15630405    -0.00100
C1293       C  0.87681257  0.37402486  0.05188785     0.01400
C1294       C  0.89284505  0.36035966  0.04196760     0.04200
C1295       C  0.89516251  0.35992759  0.01888157    -0.11900
C1296       C  0.88134569  0.37285950  0.00551413     0.23500
C1297       C  0.86565144  0.38676550  0.01534818    -0.12500
C1298       C  0.86340310  0.38741574  0.03840426     0.04900
C1299       C  0.88250607  0.37120660  0.98107869     0.27300
C1300       C  0.89653045  0.38513812  0.96894109    -0.13100
C1301       C  0.89643854  0.38451734  0.94574623     0.05400
C1302       C  0.88219588  0.36997559  0.93450256    -0.09100
C1303       C  0.86835508  0.35583922  0.94676477     0.06200
C1304       C  0.86870031  0.35632786  0.96993796    -0.13500
Br1305     Br  0.84695767  0.40470352  0.99699919    -0.05500
Br1306     Br  0.91227940  0.34266152  0.05983202     0.00100
Br1307     Br  0.91643247  0.40317652  0.92952565     0.00500
Br1308     Br  0.85004020  0.33677240  0.98664776    -0.03900
Br1309     Br  0.84091518  0.40577054  0.05120003     0.00600
Br1310     Br  0.91731594  0.34167061  0.00539454    -0.03200
Br1311     Br  0.91583416  0.40508115  0.98426165    -0.04000
Br1312     Br  0.84766402  0.33685391  0.93199997    -0.00100
C1313       C  0.36608450  0.81003175  0.13689795     0.01400
C1314       C  0.35726424  0.79901008  0.11849016     0.04200
C1315       C  0.35748081  0.77586822  0.11764928    -0.11900
C1316       C  0.36616128  0.76365948  0.13533081     0.23500
C1317       C  0.37402556  0.77462396  0.15413794    -0.12500
C1318       C  0.37427296  0.79776162  0.15479751     0.04900
C1319       C  0.36773587  0.73932960  0.13383314     0.27300
C1320       C  0.35133639  0.72593604  0.14326638    -0.13100
C1321       C  0.35324743  0.70287895  0.14237758     0.05400
C1322       C  0.37123285  0.69311010  0.13134593    -0.09100
C1323       C  0.38735624  0.70658138  0.12143168     0.06200
C1324       C  0.38576588  0.72962062  0.12296934    -0.13500
Br1325     Br  0.38434208  0.75782834  0.17901529    -0.05500
Br1326     Br  0.34567948  0.81552425  0.09398237     0.00100
Br1327     Br  0.33067876  0.68482178  0.15561858     0.00500
Br1328     Br  0.40837792  0.74803719  0.11035462    -0.03900
Br1329     Br  0.38541108  0.81264367  0.18044820     0.00600
Br1330     Br  0.34608651  0.76070906  0.09223485    -0.03200
Br1331     Br  0.32606392  0.73933898  0.15702067    -0.04000
Br1332     Br  0.41210449  0.69355037  0.10640007    -0.00100
C1333       C  0.37348066  0.80881130  0.88928646     0.01400
C1334       C  0.35385105  0.79663650  0.88529775     0.04200
C1335       C  0.35433308  0.77345965  0.88501283    -0.11900
C1336       C  0.37423326  0.76215732  0.88807653     0.23500
C1337       C  0.39357083  0.77386543  0.89273243    -0.12500
C1338       C  0.39326120  0.79698704  0.89372382     0.04900
C1339       C  0.37488029  0.73782807  0.88615875     0.27300
C1340       C  0.37394290  0.72468090  0.90509547    -0.13100
C1341       C  0.37558508  0.70164407  0.90346485     0.05400
C1342       C  0.37600545  0.69124918  0.88239580    -0.09100
C1343       C  0.37669266  0.70492902  0.86328562     0.06200
C1344       C  0.37670754  0.72800907  0.86536943    -0.13500
Br1345     Br  0.42061675  0.75788811  0.89779512    -0.05500
Br1346     Br  0.32597658  0.81076205  0.87942443     0.00100
Br1347     Br  0.37847307  0.68555665  0.93084097     0.00500
Br1348     Br  0.37917018  0.74662279  0.83964554    -0.03900
Br1349     Br  0.42031969  0.81150925  0.90222600     0.00600
Br1350     Br  0.32767151  0.75672883  0.88048543    -0.03200
Br1351     Br  0.36990883  0.73861060  0.93338371    -0.04000
Br1352     Br  0.37773290  0.69323807  0.83370354    -0.00100
C1353       C  0.37723343  0.87569021  0.95352761     0.01400
C1354       C  0.36567213  0.85922628  0.96510735     0.04200
C1355       C  0.36521406  0.85943297  0.98819841    -0.11900
C1356       C  0.37667511  0.87583317  0.99982871     0.23500
C1357       C  0.38882184  0.89190362  0.98830726    -0.12500
C1358       C  0.38872199  0.89211799  0.96515220     0.04900
C1359       C  0.37547238  0.87625422  0.02417231     0.27300
C1360       C  0.36026911  0.89015266  0.03476729    -0.13100
C1361       C  0.35828243  0.88973923  0.05782988     0.05400
C1362       C  0.37113539  0.87492954  0.07034334    -0.09100
C1363       C  0.38583965  0.86053686  0.05954350     0.06200
C1364       C  0.38849159  0.86172669  0.03661781    -0.13500
Br1365     Br  0.40567475  0.91343520  0.00434513    -0.05500
Br1366     Br  0.35089423  0.83598224  0.94936060     0.00100
Br1367     Br  0.33846385  0.91010229  0.07202792     0.00500
Br1368     Br  0.41009237  0.84355424  0.02212485    -0.03900
Br1369     Br  0.40296027  0.91577335  0.94943332     0.00600
Br1370     Br  0.34882019  0.83725802  0.00401689    -0.03200
Br1371     Br  0.34216431  0.90975299  0.01753425    -0.04000
Br1372     Br  0.40111899  0.83785525  0.07574462    -0.00100
C1373       C  0.38069168  0.19160255  0.87566058     0.01400
C1374       C  0.39909472  0.20330264  0.88423811     0.04200
C1375       C  0.39840936  0.22637702  0.88623091    -0.11900
C1376       C  0.38040040  0.23828367  0.87805874     0.23500
C1377       C  0.36254405  0.22708513  0.86863471    -0.12500
C1378       C  0.36248095  0.20391755  0.86759416     0.04900
C1379       C  0.38063537  0.26272375  0.87875332     0.27300
C1380       C  0.37085310  0.27394784  0.89644934    -0.13100
C1381       C  0.37072375  0.29712555  0.89690992     0.05400
C1382       C  0.38104798  0.30927026  0.87986212    -0.09100
C1383       C  0.39192219  0.29776789  0.86272941     0.06200
C1384       C  0.39117501  0.27465410  0.86192989    -0.13500
Br1385     Br  0.33799866  0.24381504  0.85732437    -0.05500
Br1386     Br  0.42594371  0.18875679  0.89308733     0.00100
Br1387     Br  0.35563673  0.31175143  0.92069884     0.00500
Br1388     Br  0.40468108  0.25912596  0.83774364    -0.03900
Br1389     Br  0.33763799  0.18984110  0.85374536     0.00600
Br1390     Br  0.42181490  0.24200437  0.90099288    -0.03200
Br1391     Br  0.35780750  0.25728282  0.92014899    -0.04000
Br1392     Br  0.40951127  0.31317864  0.84108556    -0.00100
C1393       C  0.37816928  0.05871860  0.88257568     0.01400
C1394       C  0.39179752  0.04803956  0.89811158     0.04200
C1395       C  0.39232509  0.02492248  0.89918494    -0.11900
C1396       C  0.37842727  0.01239286  0.88559311     0.23500
C1397       C  0.36413380  0.02298605  0.87078236    -0.12500
C1398       C  0.36436336  0.04604800  0.86885993     0.04900
C1399       C  0.37877307  0.98802528  0.88676639     0.27300
C1400       C  0.39285775  0.97600898  0.87287464    -0.13100
C1401       C  0.39244415  0.95287070  0.87316752     0.05400
C1402       C  0.37771205  0.94162924  0.88730082    -0.09100
C1403       C  0.36414504  0.95377347  0.90173801     0.06200
C1404       C  0.36459142  0.97690114  0.90132982    -0.13500
Br1405     Br  0.34416412  0.00569294  0.85322464    -0.05500
Br1406     Br  0.40873261  0.06489585  0.91900443     0.00100
Br1407     Br  0.41165985  0.93689837  0.85352285     0.00500
Br1408     Br  0.34563734  0.99352965  0.92057603    -0.03900
Br1409     Br  0.34666945  0.05995337  0.84645818     0.00600
Br1410     Br  0.41211753  0.01027925  0.91921337    -0.03200
Br1411     Br  0.41245501  0.99142890  0.85315770    -0.04000
Br1412     Br  0.34589316  0.93891582  0.92313676    -0.00100
C1413       C  0.37728422  0.19256651  0.12877638     0.01400
C1414       C  0.38988588  0.20471677  0.11344152     0.04200
C1415       C  0.38986987  0.22789712  0.11408568    -0.11900
C1416       C  0.37649881  0.23907855  0.12936076     0.23500
C1417       C  0.36377430  0.22698830  0.14452423    -0.12500
C1418       C  0.36439056  0.20383769  0.14446559     0.04900
C1419       C  0.37540013  0.26354996  0.12931434     0.27300
C1420       C  0.38891242  0.27583876  0.14351261    -0.13100
C1421       C  0.38695885  0.29893694  0.14439954     0.05400
C1422       C  0.37196695  0.31000362  0.13042605    -0.09100
C1423       C  0.35867099  0.29757953  0.11596646     0.06200
C1424       C  0.36019539  0.27445531  0.11566242    -0.13500
Br1425     Br  0.34550734  0.24232968  0.16543525    -0.05500
Br1426     Br  0.40597479  0.18975293  0.09052413     0.00100
Br1427     Br  0.40550762  0.31520933  0.16433029     0.00500
Br1428     Br  0.34119838  0.25749477  0.09676461    -0.03900
Br1429     Br  0.34828106  0.18770167  0.16662099     0.00600
Br1430     Br  0.40833561  0.24445317  0.09424220    -0.03200
Br1431     Br  0.41033430  0.26080348  0.16148404    -0.04000
Br1432     Br  0.33755809  0.31197790  0.09712409    -0.00100
C1433       C  0.37810372  0.05984214  0.12774625     0.01400
C1434       C  0.36559677  0.04830943  0.11195579     0.04200
C1435       C  0.36453765  0.02515440  0.11255582    -0.11900
C1436       C  0.37633319  0.01332713  0.12863744     0.23500
C1437       C  0.38967456  0.02474625  0.14372583    -0.12500
C1438       C  0.39028800  0.04792401  0.14355720     0.04900
C1439       C  0.37465211  0.98889183  0.12984922     0.27300
C1440       C  0.35973615  0.97893547  0.14459103    -0.13100
C1441       C  0.35865862  0.95583320  0.14637284     0.05400
C1442       C  0.37226235  0.94245847  0.13308617    -0.09100
C1443       C  0.38685475  0.95252089  0.11795574     0.06200
C1444       C  0.38822935  0.97562940  0.11659590    -0.13500
Br1445     Br  0.40736517  0.00841442  0.16440719    -0.05500
Br1446     Br  0.35081616  0.06414091  0.08871605     0.00100
Br1447     Br  0.33923653  0.94272120  0.16787883     0.00500
Br1448     Br  0.40882901  0.98932265  0.09665362    -0.03900
Br1449     Br  0.40688979  0.06319160  0.16584570     0.00600
Br1450     Br  0.34713355  0.00951464  0.09118384    -0.03200
Br1451     Br  0.34084059  0.99711819  0.16244924    -0.04000
Br1452     Br  0.40410349  0.93484697  0.09800592    -0.00100
C1453       C  0.37896090  0.12611261  0.94442943     0.01400
C1454       C  0.36702503  0.10947245  0.95551351     0.04200
C1455       C  0.36544358  0.10958370  0.97863564    -0.11900
C1456       C  0.37621738  0.12598740  0.99088859     0.23500
C1457       C  0.38822974  0.14251512  0.97992799    -0.12500
C1458       C  0.38957027  0.14261295  0.95679899     0.04900
C1459       C  0.37590106  0.12543223  0.01534272     0.27300
C1460       C  0.36143302  0.13910762  0.02716481    -0.13100
C1461       C  0.36283143  0.14029348  0.05024776     0.05400
C1462       C  0.37777455  0.12669862  0.06179300    -0.09100
C1463       C  0.39198557  0.11267408  0.04987738     0.06200
C1464       C  0.39118522  0.11227223  0.02673743    -0.13500
Br1465     Br  0.40276360  0.16510778  0.99683028    -0.05500
Br1466     Br  0.35380701  0.08570494  0.93918352     0.00100
Br1467     Br  0.34566697  0.16211019  0.06569230     0.00500
Br1468     Br  0.41109161  0.09369572  0.01043588    -0.03900
Br1469     Br  0.40524922  0.16593068  0.94228229     0.00600
Br1470     Br  0.34842355  0.08735899  0.99364707    -0.03200
Br1471     Br  0.33960791  0.15610999  0.01161666    -0.04000
Br1472     Br  0.41226225  0.09344442  0.06497900    -0.00100
C1473       C  0.87660414  0.06269818  0.62616130     0.01400
C1474       C  0.86309104  0.05145271  0.61095802     0.04200
C1475       C  0.86280161  0.02828856  0.61053528    -0.11900
C1476       C  0.87617243  0.01617118  0.62505169     0.23500
C1477       C  0.88933489  0.02726475  0.64047892    -0.12500
C1478       C  0.88930668  0.05040216  0.64127663     0.04900
C1479       C  0.87622242  0.99172024  0.62435972     0.27300
C1480       C  0.86170490  0.97969685  0.63782608    -0.13100
C1481       C  0.86205755  0.95652716  0.63762664     0.05400
C1482       C  0.87718841  0.94514443  0.62404874    -0.09100
C1483       C  0.89167921  0.95736131  0.61045467     0.06200
C1484       C  0.89108539  0.98054411  0.61057787    -0.13500
Br1485     Br  0.90754521  0.01056436  0.66045416    -0.05500
Br1486     Br  0.84378755  0.06760854  0.59155058     0.00100
Br1487     Br  0.84084963  0.94068937  0.65524839     0.00500
Br1488     Br  0.91077078  0.99725217  0.59202254    -0.03900
Br1489     Br  0.90713453  0.06483982  0.66294315     0.00600
Br1490     Br  0.84380196  0.01298653  0.59032883    -0.03200
Br1491     Br  0.84125413  0.99523158  0.65649835    -0.04000
Br1492     Br  0.91327592  0.94266198  0.59241356    -0.00100
C1493       C  0.05994366  0.12547439  0.63215355     0.01400
C1494       C  0.04966088  0.14355828  0.64248956     0.04200
C1495       C  0.02652938  0.14518538  0.64275904    -0.11900
C1496       C  0.01360293  0.12883195  0.63268743     0.23500
C1497       C  0.02381753  0.11058993  0.62277846    -0.12500
C1498       C  0.04689997  0.10896591  0.62242696     0.04900
C1499       C  0.98922138  0.13063990  0.63276145     0.27300
C1500       C  0.97696487  0.12107769  0.64989184    -0.13100
C1501       C  0.95381592  0.12240445  0.64988348     0.05400
C1502       C  0.94261410  0.13259798  0.63210640    -0.09100
C1503       C  0.95523034  0.14351650  0.61573148     0.06200
C1504       C  0.97838148  0.14220880  0.61592185    -0.13500
Br1505     Br  0.00605912  0.08754736  0.61016509    -0.05500
Br1506     Br  0.06709929  0.16659935  0.65555875     0.00100
Br1507     Br  0.93823804  0.11049738  0.67477932     0.00500
Br1508     Br  0.99548579  0.15606118  0.59296744    -0.03900
Br1509     Br  0.06056066  0.08348237  0.60954623     0.00600
Br1510     Br  0.01232088  0.16964755  0.65711021    -0.03200
Br1511     Br  0.99219610  0.10569959  0.67317047    -0.04000
Br1512     Br  0.94128040  0.16214481  0.59405654    -0.00100
C1513       C  0.06058320  0.86788151  0.62354136     0.01400
C1514       C  0.04851450  0.88157261  0.60908877     0.04200
C1515       C  0.02535716  0.88158023  0.60971761    -0.11900
C1516       C  0.01403898  0.86820619  0.62490906     0.23500
C1517       C  0.02593129  0.85404336  0.63886681    -0.12500
C1518       C  0.04910976  0.85374158  0.63811123     0.04900
C1519       C  0.98963658  0.86955487  0.62638797     0.27300
C1520       C  0.97968246  0.88703748  0.63790210    -0.13100
C1521       C  0.95662318  0.88956042  0.63769349     0.05400
C1522       C  0.94337031  0.87438504  0.62619952    -0.09100
C1523       C  0.95334706  0.85622044  0.61573340     0.06200
C1524       C  0.97639577  0.85398694  0.61554925    -0.13500
Br1525     Br  0.01034508  0.83508225  0.65906276    -0.05500
Br1526     Br  0.06336236  0.90138278  0.58910886     0.00100
Br1527     Br  0.94338392  0.91430369  0.65244476     0.00500
Br1528     Br  0.98990946  0.82965487  0.60031900    -0.03900
Br1529     Br  0.06487668  0.83306042  0.65640254     0.00600
Br1530     Br  0.00890233  0.90010219  0.58983305    -0.03200
Br1531     Br  0.99785584  0.90758395  0.65381618    -0.04000
Br1532     Br  0.93546709  0.83350029  0.60284173    -0.00100
C1533       C  0.12479183  0.93634643  0.62640048     0.01400
C1534       C  0.10682165  0.94736133  0.63611633     0.04200
C1535       C  0.10621172  0.97053319  0.63643800    -0.11900
C1536       C  0.12378899  0.98281242  0.62753405     0.23500
C1537       C  0.14172232  0.97179174  0.61777780    -0.12500
C1538       C  0.14203310  0.94864781  0.61686064     0.04900
C1539       C  0.12330185  0.00731744  0.62822862     0.27300
C1540       C  0.11675331  0.01935092  0.60961386    -0.13100
C1541       C  0.11675151  0.04255575  0.60994141     0.05400
C1542       C  0.12307088  0.05417870  0.62929457    -0.09100
C1543       C  0.12894146  0.04167866  0.64829531     0.06200
C1544       C  0.12920638  0.01848036  0.64755010    -0.13500
Br1545     Br  0.16596292  0.98846791  0.60581251    -0.05500
Br1546     Br  0.08243434  0.93075622  0.64788510     0.00100
Br1547     Br  0.10726060  0.05749158  0.58347769     0.00500
Br1548     Br  0.13780590  0.00160273  0.67311594    -0.03900
Br1549     Br  0.16629991  0.93377252  0.60276662     0.00600
Br1550     Br  0.08110806  0.98563075  0.64864833    -0.03200
Br1551     Br  0.10739213  0.00364178  0.58363671    -0.04000
Br1552     Br  0.13719856  0.05535690  0.67578662    -0.00100
C1553       C  0.62541005  0.88627281  0.30838171     0.01400
C1554       C  0.60953923  0.89920124  0.29733811     0.04200
C1555       C  0.60845665  0.89902268  0.27416582    -0.11900
C1556       C  0.62318629  0.88598590  0.26193051     0.23500
C1557       C  0.63982483  0.87413574  0.27285594    -0.12500
C1558       C  0.64088011  0.87416520  0.29598759     0.04900
C1559       C  0.62109462  0.88440848  0.23758999     0.27300
C1560       C  0.60704576  0.86857339  0.22817194    -0.13100
C1561       C  0.60615011  0.86600092  0.20513963     0.05400
C1562       C  0.61910319  0.87954827  0.19131634    -0.09100
C1563       C  0.63246133  0.89601642  0.20087028     0.06200
C1564       C  0.63361806  0.89825016  0.22388546    -0.13500
Br1565     Br  0.66140080  0.85814550  0.25594958    -0.05500
Br1566     Br  0.58854730  0.91639797  0.31379086     0.00100
Br1567     Br  0.58794302  0.84310871  0.19282094     0.00500
Br1568     Br  0.65239332  0.92030254  0.23683451    -0.03900
Br1569     Br  0.66419840  0.85830988  0.31059290     0.00600
Br1570     Br  0.58687964  0.91665368  0.25898143    -0.03200
Br1571     Br  0.58915111  0.85029211  0.24701838    -0.04000
Br1572     Br  0.64825509  0.91659616  0.18263960    -0.00100
C1573       C  0.62236524  0.87363889  0.80839367     0.01400
C1574       C  0.60886260  0.86075904  0.79454676     0.04200
C1575       C  0.61044080  0.86298044  0.77151456    -0.11900
C1576       C  0.62528106  0.87819275  0.76221076     0.23500
C1577       C  0.63857732  0.89117712  0.77593645    -0.12500
C1578       C  0.63704309  0.88906802  0.79892719     0.04900
C1579       C  0.62705242  0.88044846  0.73793736     0.27300
C1580       C  0.64185624  0.86714416  0.72618893    -0.13100
C1581       C  0.64304306  0.86861740  0.70311736     0.05400
C1582       C  0.62941645  0.88360926  0.69155431    -0.09100
C1583       C  0.61536906  0.89777822  0.70360706     0.06200
C1584       C  0.61412531  0.89602183  0.72669740    -0.13500
Br1585     Br  0.65906962  0.91175291  0.76302708    -0.05500
Br1586     Br  0.58873888  0.83945089  0.80684306     0.00100
Br1587     Br  0.66416282  0.85047560  0.68777862     0.00500
Br1588     Br  0.59446399  0.91472340  0.74317278    -0.03900
Br1589     Br  0.65426713  0.90844257  0.81725992     0.00600
Br1590     Br  0.59262493  0.84490279  0.75249746    -0.03200
Br1591     Br  0.66057784  0.84690285  0.74196209    -0.04000
Br1592     Br  0.59688035  0.91903422  0.68889649    -0.00100
C1593       C  0.69350577  0.88218941  0.62322642     0.01400
C1594       C  0.70542106  0.88978297  0.64162162     0.04200
C1595       C  0.72859067  0.88886787  0.64166512    -0.11900
C1596       C  0.73998191  0.88116883  0.62301004     0.23500
C1597       C  0.72811063  0.87449936  0.60427752    -0.12500
C1598       C  0.70493927  0.87483158  0.60445388     0.04900
C1599       C  0.76445775  0.88060406  0.62281928     0.27300
C1600       C  0.77640600  0.89830456  0.61376251    -0.13100
C1601       C  0.79954816  0.89744654  0.61271233     0.05400
C1602       C  0.81092782  0.87938639  0.62183137    -0.09100
C1603       C  0.79894224  0.86167020  0.63091057     0.06200
C1604       C  0.77576632  0.86219132  0.63121180    -0.13500
Br1605     Br  0.74373346  0.86529811  0.57824186    -0.05500
Br1606     Br  0.69007405  0.90154204  0.66676889     0.00100
Br1607     Br  0.81557233  0.92114953  0.59893287     0.00500
Br1608     Br  0.75939203  0.83769475  0.64307474    -0.03900
Br1609     Br  0.68887954  0.86652372  0.57846642     0.00600
Br1610     Br  0.74485634  0.89817111  0.66723271    -0.03200
Br1611     Br  0.76091653  0.92396611  0.60335563    -0.04000
Br1612     Br  0.81423797  0.83609340  0.64181148    -0.00100
C1613       C  0.62405151  0.87893770  0.55851529     0.01400
C1614       C  0.61618360  0.89708743  0.54596352     0.04200
C1615       C  0.61462370  0.89561893  0.52288645    -0.11900
C1616       C  0.62262455  0.87703387  0.51180021     0.23500
C1617       C  0.63064968  0.85904444  0.52391596    -0.12500
C1618       C  0.63059770  0.85952659  0.54711892     0.04900
C1619       C  0.62363044  0.87695883  0.48732152     0.27300
C1620       C  0.60641682  0.86773615  0.47487159    -0.13100
C1621       C  0.60763557  0.86757182  0.45170418     0.05400
C1622       C  0.62564684  0.87752192  0.44084741    -0.09100
C1623       C  0.64274079  0.88695111  0.45336693     0.06200
C1624       C  0.64175005  0.88661356  0.47651095    -0.13500
Br1625     Br  0.64224971  0.83385881  0.50842906    -0.05500
Br1626     Br  0.60726557  0.92440390  0.55949971     0.00100
Br1627     Br  0.58418067  0.85440730  0.43490210     0.00500
Br1628     Br  0.66489842  0.89997474  0.49359517    -0.03900
Br1629     Br  0.64010240  0.83323281  0.56240822     0.00600
Br1630     Br  0.60116019  0.91898957  0.50608386    -0.03200
Br1631     Br  0.58061386  0.85658423  0.48965936    -0.04000
Br1632     Br  0.66796347  0.89967126  0.43884952    -0.00100
C1633       C  0.31088944  0.87825757  0.63349510     0.01400
C1634       C  0.29843946  0.86025461  0.64161257     0.04200
C1635       C  0.27544650  0.85967340  0.63874082    -0.11900
C1636       C  0.26447359  0.87732704  0.62854908     0.23500
C1637       C  0.27667610  0.89522848  0.62034674    -0.12500
C1638       C  0.29978798  0.89559321  0.62242858     0.04900
C1639       C  0.24001780  0.87705922  0.62682604     0.27300
C1640       C  0.22966373  0.86551811  0.60967084    -0.13100
C1641       C  0.20656903  0.86327114  0.60936089     0.05400
C1642       C  0.19346855  0.87402443  0.62534183    -0.09100
C1643       C  0.20397813  0.88681412  0.64172602     0.06200
C1644       C  0.22713148  0.88758463  0.64291382    -0.13500
Br1645     Br  0.26154505  0.91911102  0.60587447    -0.05500
Br1646     Br  0.31223981  0.83653291  0.65768284     0.00100
Br1647     Br  0.19337496  0.84404034  0.58787725     0.00500
Br1648     Br  0.24140949  0.90277213  0.66683127    -0.03900
Br1649     Br  0.31590465  0.91930326  0.60856609     0.00600
Br1650     Br  0.25873646  0.83450689  0.64862771    -0.03200
Br1651     Br  0.24735474  0.85279181  0.58660526    -0.04000
Br1652     Br  0.18701943  0.90465174  0.66179230    -0.00100
C1653       C  0.37495830  0.87613366  0.70413974     0.01400
C1654       C  0.35463517  0.87771858  0.71522094     0.04200
C1655       C  0.35385019  0.87688003  0.73838659    -0.11900
C1656       C  0.37345324  0.87484986  0.75064105     0.23500
C1657       C  0.39380042  0.87346401  0.73954369    -0.12500
C1658       C  0.39449771  0.87371469  0.71636859     0.04900
C1659       C  0.37271786  0.87466955  0.77515747     0.27300
C1660       C  0.36926494  0.89444178  0.78677307    -0.13100
C1661       C  0.36798897  0.89425209  0.80988235     0.05400
C1662       C  0.37194441  0.87465998  0.82157217    -0.09100
C1663       C  0.37550533  0.85489454  0.81010073     0.06200
C1664       C  0.37539511  0.85479455  0.78692433    -0.13500
Br1665     Br  0.42077698  0.87197915  0.75618666    -0.05500
Br1666     Br  0.32784834  0.88105264  0.69862277     0.00100
Br1667     Br  0.36033581  0.92070422  0.82556017     0.00500
Br1668     Br  0.37880576  0.82743740  0.77131951    -0.03900
Br1669     Br  0.42224980  0.87072888  0.70132984     0.00600
Br1670     Br  0.32592884  0.87872992  0.75343250    -0.03200
Br1671     Br  0.36710787  0.92193327  0.77106153    -0.04000
Br1672     Br  0.37999406  0.82792653  0.82629704    -0.00100
C1673       C  0.44382097  0.88061885  0.63811268     0.01400
C1674       C  0.45550663  0.86446948  0.62605079     0.04200
C1675       C  0.47866414  0.86446704  0.62591672    -0.11900
C1676       C  0.49037483  0.88186108  0.63566483     0.23500
C1677       C  0.47886414  0.89859720  0.64673238    -0.12500
C1678       C  0.45579488  0.89745571  0.64889390     0.04900
C1679       C  0.51478306  0.88263035  0.63386147     0.27300
C1680       C  0.52801014  0.87504057  0.65131550    -0.13100
C1681       C  0.55108731  0.87472238  0.64913188     0.05400
C1682       C  0.56107640  0.88203807  0.62947338    -0.09100
C1683       C  0.54780371  0.88962837  0.61203245     0.06200
C1684       C  0.52475078  0.89017466  0.61431464    -0.13500
Br1685     Br  0.49481348  0.92337091  0.65847013    -0.05500
Br1686     Br  0.44028189  0.84344671  0.60774979     0.00100
Br1687     Br  0.56900892  0.86464158  0.67330329     0.00500
Br1688     Br  0.50669556  0.90134175  0.59070527    -0.03900
Br1689     Br  0.44118243  0.91845724  0.66768881     0.00600
Br1690     Br  0.49452374  0.84047330  0.61250145    -0.03200
Br1691     Br  0.51440747  0.86509814  0.67822495    -0.04000
Br1692     Br  0.56100941  0.89782601  0.58442725    -0.00100
C1693       C  0.36840431  0.87937674  0.20264204     0.01400
C1694       C  0.35576300  0.86484653  0.21567820     0.04200
C1695       C  0.35712176  0.86578928  0.23880861    -0.11900
C1696       C  0.37049801  0.88170443  0.24903873     0.23500
C1697       C  0.38260307  0.89662431  0.23604386    -0.12500
C1698       C  0.38171590  0.89537323  0.21294501     0.04900
C1699       C  0.37206455  0.88259267  0.27346791     0.27300
C1700       C  0.35761832  0.89600637  0.28560477    -0.13100
C1701       C  0.35898674  0.89672110  0.30875047     0.05400
C1702       C  0.37474269  0.88372028  0.31999220    -0.09100
C1703       C  0.38978967  0.87098870  0.30761635     0.06200
C1704       C  0.38826724  0.87026948  0.28449685    -0.13500
Br1705     Br  0.40050429  0.91874625  0.25000777    -0.05500
Br1706     Br  0.33713597  0.84311456  0.20201221     0.00100
Br1707     Br  0.33878029  0.91532493  0.32470728     0.00500
Br1708     Br  0.40837994  0.85237294  0.26769107    -0.03900
Br1709     Br  0.39809973  0.91631239  0.19545560     0.00600
Br1710     Br  0.34115767  0.84490615  0.25663362    -0.03200
Br1711     Br  0.33579974  0.91326966  0.27030529    -0.04000
Br1712     Br  0.41371119  0.85583516  0.32197931    -0.00100
C1713       C  0.55963991  0.88306131  0.37534190     0.01400
C1714       C  0.54737653  0.86970760  0.36079608     0.04200
C1715       C  0.52421517  0.86959721  0.36181900    -0.11900
C1716       C  0.51315441  0.88365489  0.37651273     0.23500
C1717       C  0.52528528  0.89792608  0.39006969    -0.12500
C1718       C  0.54841647  0.89717109  0.39003567     0.04900
C1719       C  0.48877108  0.88310829  0.37825613     0.27300
C1720       C  0.47569748  0.89509994  0.36337220    -0.13100
C1721       C  0.45259089  0.89483934  0.36537196     0.05400
C1722       C  0.44245287  0.88320668  0.38282553    -0.09100
C1723       C  0.45572016  0.87165958  0.39798881     0.06200
C1724       C  0.47872617  0.87119859  0.39541719    -0.13500
Br1725     Br  0.51001147  0.91879418  0.40845338    -0.05500
Br1726     Br  0.56202009  0.85265029  0.33837362     0.00100
Br1727     Br  0.43500415  0.90973470  0.34354462     0.00500
Br1728     Br  0.49666261  0.85431737  0.41549148    -0.03900
Br1729     Br  0.56437219  0.91463118  0.41120878     0.00600
Br1730     Br  0.50749746  0.85025040  0.34306998    -0.03200
Br1731     Br  0.48965005  0.91212571  0.34046120    -0.04000
Br1732     Br  0.44275340  0.85787532  0.42335839    -0.00100
C1733       C  0.37680698  0.88143233  0.45360189     0.01400
C1734       C  0.38482349  0.86311900  0.46583998     0.04200
C1735       C  0.38494336  0.86353309  0.48908850    -0.11900
C1736       C  0.37728285  0.88208631  0.50053759     0.23500
C1737       C  0.36892647  0.90010320  0.48870839    -0.12500
C1738       C  0.36869675  0.89993109  0.46548556     0.04900
C1739       C  0.37754460  0.88243025  0.52510795     0.27300
C1740       C  0.35894991  0.87531735  0.53704134    -0.13100
C1741       C  0.35920103  0.87536263  0.56020885     0.05400
C1742       C  0.37816768  0.88217569  0.57165075    -0.09100
C1743       C  0.39675970  0.88939994  0.55977782     0.06200
C1744       C  0.39636859  0.88973595  0.53656115    -0.13500
Br1745     Br  0.35725290  0.92493730  0.50469085    -0.05500
Br1746     Br  0.39649503  0.83732030  0.45154696     0.00100
Br1747     Br  0.33330000  0.86658666  0.57633871     0.00500
Br1748     Br  0.42155740  0.90024099  0.52035025    -0.03900
Br1749     Br  0.35622893  0.92521861  0.45074614     0.00600
Br1750     Br  0.39528241  0.83844108  0.50566584    -0.03200
Br1751     Br  0.33312987  0.86544417  0.52153544    -0.04000
Br1752     Br  0.42299210  0.89806465  0.57536131    -0.00100
C1753       C  0.88009065  0.37525596  0.68323490     0.01400
C1754       C  0.89478581  0.36097232  0.69434353     0.04200
C1755       C  0.89348180  0.35843532  0.71736294    -0.11900
C1756       C  0.87792481  0.37047497  0.72959030     0.23500
C1757       C  0.86319152  0.38459504  0.71860059    -0.12500
C1758       C  0.86429260  0.38708265  0.69556380     0.04900
C1759       C  0.87834618  0.36984601  0.75412416     0.27300
C1760       C  0.86738925  0.35315797  0.76586352    -0.13100
C1761       C  0.86798349  0.35278491  0.78910654     0.05400
C1762       C  0.87928779  0.36939497  0.80099532    -0.09100
C1763       C  0.88998752  0.38629604  0.78886494     0.06200
C1764       C  0.88966183  0.38632742  0.76567596    -0.13500
Br1765     Br  0.84166358  0.40077819  0.73538110    -0.05500
Br1766     Br  0.91666413  0.34438830  0.67830825     0.00100
Br1767     Br  0.85210351  0.32988382  0.80412603     0.00500
Br1768     Br  0.90482301  0.40908572  0.74935607    -0.03900
Br1769     Br  0.84516425  0.40808698  0.68134072     0.00600
Br1770     Br  0.91300420  0.33834682  0.73229769    -0.03200
Br1771     Br  0.85116384  0.33107106  0.74985229    -0.04000
Br1772     Br  0.90586759  0.40944091  0.80335104    -0.00100
C1773       C  0.88203489  0.31185856  0.61877954     0.01400
C1774       C  0.86846124  0.30132005  0.63443666     0.04200
C1775       C  0.86801143  0.27828321  0.63567345    -0.11900
C1776       C  0.88151255  0.26575320  0.62169902     0.23500
C1777       C  0.89567071  0.27620117  0.60662563    -0.12500
C1778       C  0.89566019  0.29924612  0.60485358     0.04900
C1779       C  0.88020415  0.24152276  0.62238588     0.27300
C1780       C  0.89304762  0.22957401  0.63744360    -0.13100
C1781       C  0.89122610  0.20652631  0.63850730     0.05400
C1782       C  0.87669435  0.19533985  0.62420621    -0.09100
C1783       C  0.86386597  0.20756184  0.60918936     0.06200
C1784       C  0.86562304  0.23055198  0.60826986    -0.13500
Br1785     Br  0.91514142  0.25877708  0.58862183    -0.05500
Br1786     Br  0.85127605  0.31830564  0.65505818     0.00100
Br1787     Br  0.90940715  0.19052570  0.65902939     0.00500
Br1788     Br  0.84797639  0.24721349  0.58770732    -0.03900
Br1789     Br  0.91334057  0.31328074  0.58246836     0.00600
Br1790     Br  0.84901403  0.26373922  0.65660256    -0.03200
Br1791     Br  0.91335810  0.24502482  0.65626871    -0.04000
Br1792     Br  0.84284301  0.19330864  0.59060591    -0.00100
C1793       C  0.87333072  0.38302783  0.30176720     0.01400
C1794       C  0.85436871  0.38907800  0.28951784     0.04200
C1795       C  0.85377458  0.38593771  0.26660687    -0.11900
C1796       C  0.87213300  0.37738985  0.25548151     0.23500
C1797       C  0.89127013  0.37199149  0.26722209    -0.12500
C1798       C  0.89214137  0.37505723  0.29016057     0.04900
C1799       C  0.87192743  0.37615400  0.23110281     0.27300
C1800       C  0.86209893  0.35822326  0.22036020    -0.13100
C1801       C  0.85992832  0.35828486  0.19727087     0.05400
C1802       C  0.86893288  0.37576263  0.18459391    -0.09100
C1803       C  0.87963662  0.39333479  0.19565615     0.06200
C1804       C  0.88070232  0.39363319  0.21876184    -0.13500
Br1805     Br  0.91642965  0.36049048  0.25150066    -0.05500
Br1806     Br  0.82956149  0.40358639  0.30309379     0.00100
Br1807     Br  0.84314007  0.33500713  0.18370450     0.00500
Br1808     Br  0.89442553  0.41801270  0.23384746    -0.03900
Br1809     Br  0.91987259  0.36860615  0.30453477     0.00600
Br1810     Br  0.82779662  0.39375959  0.25006936    -0.03200
Br1811     Br  0.85194118  0.33346337  0.23754200    -0.04000
Br1812     Br  0.89404086  0.41688347  0.17980716    -0.00100
C1813       C  0.88385644  0.37674146  0.55070218     0.01400
C1814       C  0.86976375  0.36236682  0.53907667     0.04200
C1815       C  0.86958911  0.36255804  0.51595920    -0.11900
C1816       C  0.88353919  0.37695720  0.50434372     0.23500
C1817       C  0.89843751  0.39042745  0.51579334    -0.12500
C1818       C  0.89839629  0.39060519  0.53892826     0.04900
C1819       C  0.88172357  0.37855780  0.48011349     0.27300
C1820       C  0.89181903  0.36268443  0.46668479    -0.13100
C1821       C  0.88846747  0.36312542  0.44384805     0.05400
C1822       C  0.87592310  0.38016142  0.43421511    -0.09100
C1823       C  0.86620682  0.39635753  0.44765062     0.06200
C1824       C  0.86901436  0.39545963  0.47059419    -0.13500
Br1825     Br  0.91886614  0.40859456  0.49958349    -0.05500
Br1826     Br  0.85110967  0.34176319  0.55454440     0.00100
Br1827     Br  0.90019116  0.33961160  0.42600444     0.00500
Br1828     Br  0.85593785  0.41768942  0.48907392    -0.03900
Br1829     Br  0.91720860  0.41109051  0.55419237     0.00600
Br1830     Br  0.85027053  0.34303801  0.50000599    -0.03200
Br1831     Br  0.91072561  0.34071278  0.47962711    -0.04000
Br1832     Br  0.85001707  0.42041477  0.43470087    -0.00100
C1833       C  0.87988297  0.69375053  0.62489638     0.01400
C1834       C  0.86401665  0.70539603  0.61247745     0.04200
C1835       C  0.86344808  0.72851424  0.61302403    -0.11900
C1836       C  0.88007437  0.74033165  0.62398228     0.23500
C1837       C  0.89679994  0.72882357  0.63518644    -0.12500
C1838       C  0.89616250  0.70568254  0.63650984     0.04900
C1839       C  0.87962317  0.76484560  0.62401585     0.27300
C1840       C  0.88475711  0.77665742  0.60479523    -0.13100
C1841       C  0.88237539  0.79972253  0.60414479     0.05400
C1842       C  0.87709425  0.81165917  0.62365543    -0.09100
C1843       C  0.87267634  0.79942398  0.64324812     0.06200
C1844       C  0.87309829  0.77623130  0.64301478    -0.13500
Br1845     Br  0.92067568  0.74486722  0.64862135    -0.05500
Br1846     Br  0.84404006  0.69010342  0.59310769     0.00100
Br1847     Br  0.88588119  0.81377341  0.57574189     0.00500
Br1848     Br  0.86408946  0.75967666  0.66870343    -0.03900
Br1849     Br  0.91685326  0.69079853  0.65549914     0.00600
Br1850     Br  0.83947863  0.74406857  0.59916977    -0.03200
Br1851     Br  0.89536708  0.76092097  0.57927351    -0.04000
Br1852     Br  0.86546630  0.81335339  0.67093244    -0.00100
C1853       C  0.87815189  0.62642037  0.69112885     0.01400
C1854       C  0.88832621  0.60912617  0.70275641     0.04200
C1855       C  0.88817141  0.60900137  0.72591093    -0.11900
C1856       C  0.87740589  0.62589254  0.73756846     0.23500
C1857       C  0.86700133  0.64306617  0.72593731    -0.12500
C1858       C  0.86748076  0.64340529  0.70277304     0.04900
C1859       C  0.87672603  0.62535517  0.76203901     0.27300
C1860       C  0.86126421  0.61193836  0.77295633    -0.13100
C1861       C  0.86057433  0.61134293  0.79610630     0.05400
C1862       C  0.87551012  0.62405585  0.80854761    -0.09100
C1863       C  0.89116452  0.63732149  0.79754812     0.06200
C1864       C  0.89170033  0.63799696  0.77437612    -0.13500
Br1865     Br  0.85202466  0.66607423  0.74181555    -0.05500
Br1866     Br  0.90131544  0.58489118  0.68694282     0.00100
Br1867     Br  0.83842827  0.59374946  0.81062836     0.00500
Br1868     Br  0.91325612  0.65588330  0.75935761    -0.03900
Br1869     Br  0.85414080  0.66755673  0.68701367     0.00600
Br1870     Br  0.90263739  0.58563644  0.74177677    -0.03200
Br1871     Br  0.84107898  0.59425754  0.75603478    -0.04000
Br1872     Br  0.91282077  0.65361809  0.81404659    -0.00100
C1873       C  0.88169075  0.44371261  0.61738062     0.01400
C1874       C  0.89145418  0.45478280  0.63521482     0.04200
C1875       C  0.89091387  0.47788143  0.63615622    -0.11900
C1876       C  0.88011715  0.48996764  0.61957357     0.23500
C1877       C  0.87026421  0.47887347  0.60178254    -0.12500
C1878       C  0.87136589  0.45579229  0.60049608     0.04900
C1879       C  0.87953588  0.51437091  0.62062582     0.27300
C1880       C  0.86327167  0.52510368  0.63311692    -0.13100
C1881       C  0.86291656  0.54825714  0.63434070     0.05400
C1882       C  0.87876255  0.56088917  0.62276270    -0.09100
C1883       C  0.89498525  0.54990897  0.61010032     0.06200
C1884       C  0.89543014  0.52677921  0.60925250    -0.13500
Br1885     Br  0.85517876  0.49537096  0.57927097    -0.05500
Br1886     Br  0.90469481  0.43823951  0.65889251     0.00100
Br1887     Br  0.84135437  0.56222580  0.65300726     0.00500
Br1888     Br  0.91796712  0.51182553  0.59258841    -0.03900
Br1889     Br  0.85979546  0.44078689  0.57505185     0.00600
Br1890     Br  0.90497878  0.49304045  0.66015139    -0.03200
Br1891     Br  0.84163848  0.50781657  0.64874742    -0.04000
Br1892     Br  0.91622715  0.56616519  0.59285812    -0.00100
C1893       C  0.87411965  0.63002386  0.30896956     0.01400
C1894       C  0.88408745  0.64601171  0.29538193     0.04200
C1895       C  0.88355851  0.64367095  0.27233154    -0.11900
C1896       C  0.87253595  0.62566862  0.26272081     0.23500
C1897       C  0.86187145  0.61015745  0.27627818    -0.12500
C1898       C  0.86322330  0.61194516  0.29931364     0.04900
C1899       C  0.87250551  0.62286610  0.23839094     0.27300
C1900       C  0.85854204  0.63579596  0.22520836    -0.13100
C1901       C  0.85964303  0.63431551  0.20212746     0.05400
C1902       C  0.87394652  0.61896284  0.19201473    -0.09100
C1903       C  0.88711271  0.60519009  0.20535064     0.06200
C1904       C  0.88669661  0.60747435  0.22842447    -0.13500
Br1905     Br  0.84494433  0.58675500  0.26317946    -0.05500
Br1906     Br  0.89763783  0.67163453  0.30824232     0.00100
Br1907     Br  0.84090286  0.65311710  0.18462686     0.00500
Br1908     Br  0.90588985  0.58979331  0.24652751    -0.03900
Br1909     Br  0.85140634  0.58873429  0.31755189     0.00600
Br1910     Br  0.89776361  0.66524712  0.25382149    -0.03200
Br1911     Br  0.83752656  0.65522230  0.23895826    -0.04000
Br1912     Br  0.90657450  0.58383468  0.19222494    -0.00100
C1913       C  0.88038115  0.56776396  0.37728722     0.01400
C1914       C  0.86657853  0.55567389  0.39162396     0.04200
C1915       C  0.86618213  0.53252393  0.39075853    -0.11900
C1916       C  0.87976817  0.52120711  0.37580283     0.23500
C1917       C  0.89438214  0.53314604  0.36227418    -0.12500
C1918       C  0.89489106  0.55632712  0.36314466     0.04900
C1919       C  0.87872740  0.49673998  0.37433282     0.27300
C1920       C  0.89391087  0.48368405  0.38594042    -0.13100
C1921       C  0.89317694  0.46054084  0.38434262     0.05400
C1922       C  0.87706305  0.45014067  0.37106887    -0.09100
C1923       C  0.86182953  0.46346142  0.35943392     0.06200
C1924       C  0.86258064  0.48657796  0.36125565    -0.13500
Br1925     Br  0.91334818  0.51759155  0.34214288    -0.05500
Br1926     Br  0.84920299  0.57068320  0.41357259     0.00100
Br1927     Br  0.91389664  0.44347528  0.40133090     0.00500
Br1928     Br  0.84134503  0.50457544  0.34591823    -0.03900
Br1929     Br  0.91513675  0.57213866  0.34440006     0.00600
Br1930     Br  0.84691479  0.51616072  0.40999719    -0.03200
Br1931     Br  0.91542656  0.49778114  0.40450810    -0.04000
Br1932     Br  0.84054451  0.45056756  0.33979540    -0.00100
C1933       C  0.87622548  0.63403584  0.44157057     0.01400
C1934       C  0.89395192  0.62371429  0.45266463     0.04200
C1935       C  0.89493677  0.62386410  0.47579639    -0.11900
C1936       C  0.87755948  0.63284666  0.48813509     0.23500
C1937       C  0.85942707  0.64229131  0.47730069    -0.12500
C1938       C  0.85888632  0.64331085  0.45414132     0.04900
C1939       C  0.87806833  0.63175327  0.51255420     0.27300
C1940       C  0.86956871  0.61315519  0.52352801    -0.13100
C1941       C  0.87001090  0.61205625  0.54664648     0.05400
C1942       C  0.87916145  0.62945942  0.55887492    -0.09100
C1943       C  0.88754981  0.64812933  0.54791743     0.06200
C1944       C  0.88695566  0.64928746  0.52479036    -0.13500
Br1945     Br  0.83525820  0.65371020  0.49446004    -0.05500
Br1946     Br  0.91598411  0.60731695  0.43666448     0.00100
Br1947     Br  0.85842558  0.58652242  0.56159829     0.00500
Br1948     Br  0.89798857  0.67498967  0.50975901    -0.03900
Br1949     Br  0.83446484  0.65806639  0.44015888     0.00600
Br1950     Br  0.92015058  0.61173415  0.49080109    -0.03200
Br1951     Br  0.85719888  0.58926896  0.50677458    -0.04000
Br1952     Br  0.89883437  0.67259118  0.56463137    -0.00100
C1953       C  0.37794801  0.12031500  0.81132848     0.01400
C1954       C  0.36069104  0.13020364  0.79901328     0.04200
C1955       C  0.36061750  0.12910480  0.77585092    -0.11900
C1956       C  0.37767953  0.11831698  0.76457958     0.23500
C1957       C  0.39441487  0.10775443  0.77657667    -0.12500
C1958       C  0.39446496  0.10846200  0.79980136     0.04900
C1959       C  0.37778137  0.11796645  0.74005002     0.27300
C1960       C  0.36495740  0.10245319  0.72863002    -0.13100
C1961       C  0.36397514  0.10292505  0.70547815     0.05400
C1962       C  0.37659116  0.11841170  0.69344660    -0.09100
C1963       C  0.38963285  0.13383314  0.70498610     0.06200
C1964       C  0.39000256  0.13371621  0.72817511    -0.13500
Br1965     Br  0.41704960  0.09193091  0.76089746    -0.05500
Br1966     Br  0.33693999  0.14582362  0.81313362     0.00100
Br1967     Br  0.34393961  0.08328781  0.69059224     0.00500
Br1968     Br  0.40724312  0.15521679  0.74385005    -0.03900
Br1969     Br  0.41633413  0.09147969  0.81539034     0.00600
Br1970     Br  0.33696756  0.14236139  0.75923694    -0.03200
Br1971     Br  0.34864734  0.08056863  0.74490896    -0.04000
Br1972     Br  0.40780095  0.15471735  0.68930254    -0.00100
C1973       C  0.30976541  0.11616946  0.62680636     0.01400
C1974       C  0.29764186  0.12697948  0.64335478     0.04200
C1975       C  0.27449051  0.12738000  0.64247057    -0.11900
C1976       C  0.26329828  0.11685046  0.62514501     0.23500
C1977       C  0.27539042  0.10600175  0.60861090    -0.12500
C1978       C  0.29856882  0.10557667  0.60947838     0.04900
C1979       C  0.23879813  0.11675451  0.62481797     0.27300
C1980       C  0.22715213  0.09952530  0.63509331    -0.13100
C1981       C  0.20399944  0.10017222  0.63631567     0.05400
C1982       C  0.19232338  0.11804222  0.62715415    -0.09100
C1983       C  0.20401566  0.13507618  0.61648650     0.06200
C1984       C  0.22716131  0.13437234  0.61525230    -0.13500
Br1985     Br  0.26011243  0.09199060  0.58465771    -0.05500
Br1986     Br  0.31270196  0.14027705  0.66788529     0.00100
Br1987     Br  0.18837156  0.07610423  0.64982922     0.00500
Br1988     Br  0.24305586  0.15759286  0.60055573    -0.03900
Br1989     Br  0.31500168  0.09112345  0.58648566     0.00600
Br1990     Br  0.25793711  0.14234120  0.66501817    -0.03200
Br1991     Br  0.24311214  0.07499472  0.64740444    -0.04000
Br1992     Br  0.18843610  0.16006172  0.60457647    -0.00100
C1993       C  0.37711654  0.12427885  0.19428893     0.01400
C1994       C  0.38984805  0.13885180  0.20712393     0.04200
C1995       C  0.38892958  0.13769429  0.23023996    -0.11900
C1996       C  0.37500163  0.12232592  0.24060346     0.23500
C1997       C  0.36237640  0.10773290  0.22787252    -0.12500
C1998       C  0.36364546  0.10847359  0.20479538     0.04900
C1999       C  0.37428103  0.12089872  0.26494024     0.27300
C2000       C  0.38789452  0.10576905  0.27593126    -0.13100
C2001       C  0.38735989  0.10427424  0.29899876     0.05400
C2002       C  0.37330211  0.11812892  0.31128352    -0.09100
C2003       C  0.35964077  0.13334968  0.30015149     0.06200
C2004       C  0.36008072  0.13460382  0.27702864    -0.13500
Br2005     Br  0.34355921  0.08651405  0.24222001    -0.05500
Br2006     Br  0.40792155  0.16101742  0.19327561     0.00100
Br2007     Br  0.40696739  0.08399486  0.31350302     0.00500
Br2008     Br  0.34118086  0.15501591  0.26172611    -0.03900
Br2009     Br  0.34800651  0.08672898  0.18775952     0.00600
Br2010     Br  0.40691915  0.15692714  0.24791759    -0.03200
Br2011     Br  0.40759713  0.08735334  0.25917778    -0.04000
Br2012     Br  0.33962461  0.15204600  0.31626642    -0.00100
C2013       C  0.37478597  0.11300274  0.44368346     0.01400
C2014       C  0.39138735  0.12426293  0.45540210     0.04200
C2015       C  0.39183380  0.12354900  0.47848535    -0.11900
C2016       C  0.37560978  0.11178754  0.49005333     0.23500
C2017       C  0.35902235  0.10049150  0.47852178    -0.12500
C2018       C  0.35858637  0.10107156  0.45537168     0.04900
C2019       C  0.37533161  0.11259864  0.51439555     0.27300
C2020       C  0.38819657  0.09784962  0.52672314    -0.13100
C2021       C  0.38894932  0.09960470  0.54977630     0.05400
C2022       C  0.37607202  0.11563741  0.56071897    -0.09100
C2023       C  0.36334616  0.13057175  0.54815985     0.06200
C2024       C  0.36326379  0.12917467  0.52507079    -0.13500
Br2025     Br  0.33659296  0.08477329  0.49460181    -0.05500
Br2026     Br  0.41396765  0.14041968  0.44016772     0.00100
Br2027     Br  0.40917516  0.08110439  0.56590493     0.00500
Br2028     Br  0.34699955  0.15027092  0.50773311    -0.03900
Br2029     Br  0.33480897  0.08684298  0.43988779     0.00600
Br2030     Br  0.41447067  0.13902688  0.49452095    -0.03200
Br2031     Br  0.40518239  0.07556589  0.51181462    -0.04000
Br2032     Br  0.34536345  0.15268214  0.56213265    -0.00100
C2033       C  0.69264066  0.12141069  0.61384269     0.01400
C2034       C  0.70455053  0.11078417  0.59700569     0.04200
C2035       C  0.72773964  0.11088393  0.59730947    -0.11900
C2036       C  0.73910106  0.12192519  0.61424836     0.23500
C2037       C  0.72715657  0.13297141  0.63075558    -0.12500
C2038       C  0.70402364  0.13249843  0.63071063     0.04900
C2039       C  0.76358697  0.12205722  0.61481978     0.27300
C2040       C  0.77493754  0.10899520  0.63020295    -0.13100
C2041       C  0.79792496  0.11109076  0.63257289     0.05400
C2042       C  0.81013539  0.12441998  0.61775882    -0.09100
C2043       C  0.79868809  0.13521320  0.60050502     0.06200
C2044       C  0.77552586  0.13549911  0.60025607    -0.13500
Br2045     Br  0.74256991  0.14901521  0.65335114    -0.05500
Br2046     Br  0.68913964  0.09700560  0.57294358     0.00100
Br2047     Br  0.81235400  0.09450660  0.65552023     0.00500
Br2048     Br  0.76000584  0.15496318  0.58046676    -0.03900
Br2049     Br  0.68798900  0.14617185  0.65447069     0.00600
Br2050     Br  0.74398351  0.09593207  0.57451060    -0.03200
Br2051     Br  0.75883039  0.08779998  0.64758233    -0.04000
Br2052     Br  0.81384955  0.14853034  0.57612180    -0.00100
C2053       C  0.62954037  0.11946336  0.68231695     0.01400
C2054       C  0.61684143  0.13443872  0.69485974     0.04200
C2055       C  0.61716711  0.13352726  0.71797853    -0.11900
C2056       C  0.63046092  0.11803368  0.72883809     0.23500
C2057       C  0.64341794  0.10333553  0.71655644    -0.12500
C2058       C  0.64301817  0.10399863  0.69339227     0.04900
C2059       C  0.63123134  0.11770800  0.75324673     0.27300
C2060       C  0.64569029  0.13186627  0.76445822    -0.13100
C2061       C  0.64563456  0.13254665  0.78761047     0.05400
C2062       C  0.63156144  0.11849426  0.79970656    -0.09100
C2063       C  0.61738586  0.10398216  0.78835573     0.06200
C2064       C  0.61708486  0.10378115  0.76520407    -0.13500
Br2065     Br  0.66190627  0.08246092  0.73171858    -0.05500
Br2066     Br  0.59834365  0.15606342  0.68090535     0.00100
Br2067     Br  0.66372596  0.15392257  0.80247806     0.00500
Br2068     Br  0.59722630  0.08451206  0.74969813    -0.03900
Br2069     Br  0.66218076  0.08452002  0.67719437     0.00600
Br2070     Br  0.59919110  0.15341795  0.73502154    -0.03200
Br2071     Br  0.66546016  0.15040259  0.74783461    -0.04000
Br2072     Br  0.59888966  0.08365086  0.80435288    -0.00100
C2073       C  0.55973113  0.11944113  0.61935108     0.01400
C2074       C  0.54750027  0.10064287  0.61252646     0.04200
C2075       C  0.52431038  0.10107046  0.61264236    -0.11900
C2076       C  0.51300591  0.11919067  0.62138329     0.23500
C2077       C  0.52480688  0.13743150  0.62909421    -0.12500
C2078       C  0.54790659  0.13806403  0.62730461     0.04900
C2079       C  0.48859238  0.11906566  0.62258796     0.27300
C2080       C  0.47610603  0.12890939  0.60573707    -0.13100
C2081       C  0.45295944  0.12872384  0.60685316     0.05400
C2082       C  0.44222642  0.11885702  0.62497120    -0.09100
C2083       C  0.45478102  0.10938868  0.64201502     0.06200
C2084       C  0.47791100  0.10945725  0.64079773    -0.13500
Br2085     Br  0.50894567  0.16154798  0.64239969    -0.05500
Br2086     Br  0.56150510  0.07379375  0.60284622     0.00100
Br2087     Br  0.43604467  0.14126674  0.58310550     0.00500
Br2088     Br  0.49513051  0.09685201  0.66427470    -0.03900
Br2089     Br  0.56232402  0.16494648  0.63616029     0.00600
Br2090     Br  0.50768304  0.07699846  0.60027674    -0.03200
Br2091     Br  0.49090073  0.14275405  0.58124181    -0.04000
Br2092     Br  0.44030729  0.09732828  0.66758803    -0.00100
C2093       C  0.62263277  0.12124079  0.18308744     0.01400
C2094       C  0.60861726  0.13439476  0.19618886     0.04200
C2095       C  0.60925939  0.13266424  0.21929922    -0.11900
C2096       C  0.62399392  0.11799342  0.22953080     0.23500
C2097       C  0.63798414  0.10486830  0.21658036    -0.12500
C2098       C  0.63711899  0.10621371  0.19347255     0.04900
C2099       C  0.62478843  0.11641990  0.25394243     0.27300
C2100       C  0.64118812  0.12775806  0.26573743    -0.13100
C2101       C  0.64151502  0.12686859  0.28886593     0.05400
C2102       C  0.62538283  0.11470457  0.30034745    -0.09100
C2103       C  0.60953568  0.10260709  0.28851889     0.06200
C2104       C  0.60906141  0.10371730  0.26537854    -0.13500
Br2105     Br  0.65848043  0.08508846  0.23065836    -0.05500
Br2106     Br  0.58913687  0.15561576  0.18283091     0.00100
Br2107     Br  0.66471395  0.14154218  0.30481228     0.00500
Br2108     Br  0.58641983  0.08843395  0.24927615    -0.03900
Br2109     Br  0.65495941  0.08626486  0.17632423     0.00600
Br2110     Br  0.59015294  0.15064203  0.23716796    -0.03200
Br2111     Br  0.66295158  0.14487646  0.25014298    -0.04000
Br2112     Br  0.58802910  0.08502619  0.30393652    -0.00100
C2113       C  0.55757113  0.11331821  0.36720558     0.01400
C2114       C  0.54740274  0.10435298  0.38607355     0.04200
C2115       C  0.52433285  0.10290897  0.38725358    -0.11900
C2116       C  0.51137400  0.10986858  0.36936596     0.23500
C2117       C  0.52153065  0.11812509  0.35022557    -0.12500
C2118       C  0.54456225  0.12039481  0.34935200     0.04900
C2119       C  0.48704516  0.11030468  0.37144362     0.27300
C2120       C  0.47445868  0.09165681  0.36635859    -0.13100
C2121       C  0.45139131  0.09198157  0.36900154     0.05400
C2122       C  0.44048735  0.11163357  0.37580314    -0.09100
C2123       C  0.45363947  0.13034074  0.38103974     0.06200
C2124       C  0.47669131  0.12947757  0.37896685    -0.13500
Br2125     Br  0.50370941  0.12631449  0.32529184    -0.05500
Br2126     Br  0.56496003  0.09532828  0.41093420     0.00100
Br2127     Br  0.43577249  0.06488324  0.36320246     0.00500
Br2128     Br  0.49455634  0.15474006  0.38640075    -0.03900
Br2129     Br  0.55817302  0.13334426  0.32375683     0.00600
Br2130     Br  0.51031205  0.09204880  0.41361470    -0.03200
Br2131     Br  0.48917390  0.06578063  0.35523989    -0.04000
Br2132     Br  0.44121813  0.15749574  0.39192384    -0.00100
C2133       C  0.62417613  0.12155792  0.54965508     0.01400
C2134       C  0.63746862  0.13685517  0.53813275     0.04200
C2135       C  0.63661231  0.13798693  0.51504450    -0.11900
C2136       C  0.62300979  0.12350277  0.50325285     0.23500
C2137       C  0.60981498  0.10818820  0.51456331    -0.12500
C2138       C  0.61031239  0.10722052  0.53768916     0.04900
C2139       C  0.62335638  0.12368302  0.47887249     0.27300
C2140       C  0.60794772  0.13627349  0.46703574    -0.13100
C2141       C  0.60794325  0.13584288  0.44387636     0.05400
C2142       C  0.62357241  0.12293646  0.43248098    -0.09100
C2143       C  0.63958482  0.11108024  0.44446953     0.06200
C2144       C  0.63926489  0.11124604  0.46758470    -0.13500
Br2145     Br  0.59099092  0.08859449  0.49815777    -0.05500
Br2146     Br  0.65814418  0.15537110  0.55357124     0.00100
Br2147     Br  0.58589871  0.15233189  0.42805424     0.00500
Br2148     Br  0.66065873  0.09445164  0.48399227    -0.03900
Br2149     Br  0.59126954  0.08668808  0.55262232     0.00600
Br2150     Br  0.65414125  0.15933920  0.49933607    -0.03200
Br2151     Br  0.58686996  0.15403237  0.48275836    -0.04000
Br2152     Br  0.66295909  0.09572551  0.42940122    -0.00100
C2153       C  0.12311069  0.62231793  0.68666834     0.01400
C2154       C  0.13397226  0.64015222  0.69679281     0.04200
C2155       C  0.13639093  0.64078256  0.71987027    -0.11900
C2156       C  0.12776483  0.62369680  0.73306473     0.23500
C2157       C  0.11682935  0.60592403  0.72292615    -0.12500
C2158       C  0.11428582  0.60536084  0.69987046     0.04900
C2159       C  0.12875484  0.62507404  0.75761915     0.27300
C2160       C  0.14396101  0.61234482  0.76965741    -0.13100
C2161       C  0.14355664  0.61241078  0.79290718     0.05400
C2162       C  0.12817889  0.62562949  0.80441927    -0.09100
C2163       C  0.11358250  0.63901125  0.79219437     0.06200
C2164       C  0.11371034  0.63852038  0.76900025    -0.13500
Br2165     Br  0.10520802  0.58233059  0.74074203    -0.05500
Br2166     Br  0.14406176  0.66459920  0.67915292     0.00100
Br2167     Br  0.16466150  0.59472488  0.80877520     0.00500
Br2168     Br  0.09261475  0.65574819  0.75263301    -0.03900
Br2169     Br  0.09869875  0.58125962  0.68641151     0.00600
Br2170     Br  0.15132606  0.66520079  0.73350658    -0.03200
Br2171     Br  0.16529820  0.59471343  0.75412682    -0.04000
Br2172     Br  0.09227662  0.65717641  0.80687156    -0.00100
C2173       C  0.11825928  0.68681112  0.61878001     0.01400
C2174       C  0.10505358  0.69907560  0.63349018     0.04200
C2175       C  0.10638807  0.72221347  0.63371605    -0.11900
C2176       C  0.12023580  0.73329080  0.61874948     0.23500
C2177       C  0.13245600  0.72118718  0.60327735    -0.12500
C2178       C  0.13185826  0.69804229  0.60353628     0.04900
C2179       C  0.12226034  0.75766790  0.61948645     0.27300
C2180       C  0.10675521  0.77099467  0.60860888    -0.13100
C2181       C  0.10844801  0.79406928  0.60969897     0.05400
C2182       C  0.12598444  0.80397269  0.62129132    -0.09100
C2183       C  0.14182842  0.79058520  0.63167530     0.06200
C2184       C  0.13990275  0.76749830  0.63086083    -0.13500
Br2185     Br  0.14976167  0.73654507  0.58148962    -0.05500
Br2186     Br  0.08572796  0.68443509  0.65410328     0.00100
Br2187     Br  0.08609422  0.81200564  0.59603277     0.00500
Br2188     Br  0.16160785  0.74916600  0.64500150    -0.03900
Br2189     Br  0.14922229  0.68199284  0.58231438     0.00600
Br2190     Br  0.08955024  0.73885950  0.65483019    -0.03200
Br2191     Br  0.08343999  0.75747462  0.59187735    -0.04000
Br2192     Br  0.16681919  0.80383386  0.64599035    -0.00100
C2193       C  0.12600283  0.62526215  0.18828444     0.01400
C2194       C  0.10687213  0.63175814  0.19970952     0.04200
C2195       C  0.10666281  0.63208302  0.22286063    -0.11900
C2196       C  0.12594264  0.62721686  0.23476112     0.23500
C2197       C  0.14524592  0.62114483  0.22335833    -0.12500
C2198       C  0.14511220  0.61967116  0.20020881     0.04900
C2199       C  0.12539809  0.62742766  0.25925323     0.27300
C2200       C  0.12492330  0.64755201  0.27083507    -0.13100
C2201       C  0.12256129  0.64760412  0.29387535     0.05400
C2202       C  0.12163041  0.62760216  0.30548182    -0.09100
C2203       C  0.12263625  0.60752274  0.29406266     0.06200
C2204       C  0.12397885  0.60742207  0.27096512    -0.13500
Br2205     Br  0.17176302  0.61454048  0.23951532    -0.05500
Br2206     Br  0.08059221  0.63944195  0.18374619     0.00100
Br2207     Br  0.12016670  0.67500074  0.30970610     0.00500
Br2208     Br  0.12303818  0.57988212  0.25529077    -0.03900
Br2209     Br  0.17116380  0.61008008  0.18483364     0.00600
Br2210     Br  0.07961249  0.63798937  0.23845399    -0.03200
Br2211     Br  0.12736684  0.67505517  0.25520013    -0.04000
Br2212     Br  0.12219397  0.58015835  0.31010842    -0.00100
C2213       C  0.11415936  0.61973808  0.55425316     0.01400
C2214       C  0.12638282  0.60434513  0.54186092     0.04200
C2215       C  0.12572188  0.60491234  0.51871421    -0.11900
C2216       C  0.11245564  0.62048557  0.50783831     0.23500
C2217       C  0.09952605  0.63521539  0.52014222    -0.12500
C2218       C  0.10067776  0.63516183  0.54326096     0.04900
C2219       C  0.11300921  0.62226407  0.48348160     0.27300
C2220       C  0.12632060  0.63839909  0.47341964    -0.13100
C2221       C  0.12647221  0.64067089  0.45039613     0.05400
C2222       C  0.11407270  0.62615591  0.43728027    -0.09100
C2223       C  0.10120307  0.60962715  0.44732687     0.06200
C2224       C  0.10022440  0.60806917  0.47040541    -0.13500
Br2225     Br  0.08039039  0.65560233  0.50508719    -0.05500
Br2226     Br  0.14351426  0.58192983  0.55644747     0.00100
Br2227     Br  0.14294528  0.66426769  0.43690067     0.00500
Br2228     Br  0.08134319  0.58657452  0.48417995    -0.03900
Br2229     Br  0.08506049  0.65743065  0.55959172     0.00600
Br2230     Br  0.14321449  0.58457579  0.50176061    -0.03200
Br2231     Br  0.14455419  0.65720866  0.49129188    -0.04000
Br2232     Br  0.08616252  0.58811228  0.42951444    -0.00100
C2233       C  0.12806730  0.30474327  0.62881211     0.01400
C2234       C  0.11572442  0.29402531  0.64542337     0.04200
C2235       C  0.11509382  0.27087716  0.64640907    -0.11900
C2236       C  0.12679938  0.25832148  0.63087935     0.23500
C2237       C  0.13918175  0.26896133  0.61440443    -0.12500
C2238       C  0.13969545  0.29207496  0.61326798     0.04900
C2239       C  0.12620003  0.23389255  0.63169389     0.27300
C2240       C  0.14160400  0.22234945  0.64454820    -0.13100
C2241       C  0.14240149  0.19921052  0.64384598     0.05400
C2242       C  0.12742253  0.18740408  0.63055532    -0.09100
C2243       C  0.11165487  0.19909008  0.61800095     0.06200
C2244       C  0.11105146  0.22223557  0.61866082    -0.13500
Br2245     Br  0.15527097  0.25167726  0.59322131    -0.05500
Br2246     Br  0.10005262  0.31092995  0.66728207     0.00100
Br2247     Br  0.16512640  0.18401936  0.65999894     0.00500
Br2248     Br  0.08930616  0.23816833  0.60187685    -0.03900
Br2249     Br  0.15501572  0.30620128  0.58938345     0.00600
Br2250     Br  0.09819179  0.25621970  0.66897534    -0.03200
Br2251     Br  0.16164720  0.23847294  0.66308998    -0.04000
Br2252     Br  0.09022936  0.18367564  0.60032196    -0.00100
C2253       C  0.12546142  0.37028873  0.69234775     0.01400
C2254       C  0.10756090  0.37848991  0.70495991     0.04200
C2255       C  0.10905148  0.37954011  0.72809563    -0.11900
C2256       C  0.12810619  0.37219455  0.73896187     0.23500
C2257       C  0.14562567  0.36341063  0.72671397    -0.12500
C2258       C  0.14409176  0.36175098  0.70366363     0.04900
C2259       C  0.12934796  0.37292624  0.76341750     0.27300
C2260       C  0.13561129  0.39237492  0.77412487    -0.13100
C2261       C  0.13598592  0.39341879  0.79730048     0.05400
C2262       C  0.13073163  0.37452658  0.81021213    -0.09100
C2263       C  0.12508627  0.35469581  0.79902680     0.06200
C2264       C  0.12403219  0.35417283  0.77585493    -0.13500
Br2265     Br  0.17201340  0.35402225  0.74172971    -0.05500
Br2266     Br  0.08055486  0.38814487  0.69136278     0.00100
Br2267     Br  0.14433386  0.42110797  0.81043435     0.00500
Br2268     Br  0.11490770  0.32772488  0.76075157    -0.03900
Br2269     Br  0.16689379  0.34559865  0.68841162     0.00600
Br2270     Br  0.08510995  0.39149406  0.74523296    -0.03200
Br2271     Br  0.14384963  0.41763945  0.75662787    -0.04000
Br2272     Br  0.11824734  0.32771028  0.81447783    -0.00100
C2273       C  0.11903074  0.55431061  0.61977712     0.01400
C2274       C  0.10716314  0.54295062  0.60336275     0.04200
C2275       C  0.10821923  0.51983286  0.60220563    -0.11900
C2276       C  0.12031625  0.50795454  0.61799439     0.23500
C2277       C  0.13208137  0.51926348  0.63439849    -0.12500
C2278       C  0.13173582  0.54237541  0.63509503     0.04900
C2279       C  0.12039468  0.48352911  0.61786536     0.27300
C2280       C  0.10405733  0.47191618  0.62945460    -0.13100
C2281       C  0.10562310  0.44895293  0.63193892     0.05400
C2282       C  0.12296225  0.43720422  0.62170863    -0.09100
C2283       C  0.13847987  0.44888476  0.60875989     0.06200
C2284       C  0.13748616  0.47200175  0.60737099    -0.13500
Br2285     Br  0.14867237  0.50290996  0.65596243    -0.05500
Br2286     Br  0.09005167  0.55896757  0.58192974     0.00100
Br2287     Br  0.08453080  0.43421737  0.65060074     0.00500
Br2288     Br  0.15951761  0.48813933  0.59111056    -0.03900
Br2289     Br  0.14814272  0.55755913  0.65758330     0.00600
Br2290     Br  0.09364276  0.50433048  0.57871486    -0.03200
Br2291     Br  0.07947555  0.48768778  0.64193886    -0.04000
Br2292     Br  0.16029991  0.43349462  0.59155817    -0.00100
C2293       C  0.11821064  0.38024679  0.19347788     0.01400
C2294       C  0.12954842  0.39616266  0.20608343     0.04200
C2295       C  0.12985685  0.39449858  0.22914674    -0.11900
C2296       C  0.11707091  0.37844736  0.23984786     0.23500
C2297       C  0.10464420  0.36339508  0.22750182    -0.12500
C2298       C  0.10560022  0.36390013  0.20438667     0.04900
C2299       C  0.11659785  0.37766169  0.26416690     0.27300
C2300       C  0.13031101  0.36284745  0.27550155    -0.13100
C2301       C  0.13061546  0.36277167  0.29857826     0.05400
C2302       C  0.11773983  0.37801834  0.31037063    -0.09100
C2303       C  0.10364592  0.39255633  0.29904924     0.06200
C2304       C  0.10305352  0.39231962  0.27593785    -0.13500
Br2305     Br  0.08632428  0.34211521  0.24245623    -0.05500
Br2306     Br  0.14462440  0.42048895  0.19232783     0.00100
Br2307     Br  0.14791606  0.34103022  0.31401719     0.00500
Br2308     Br  0.08421058  0.41249153  0.26025617    -0.03900
Br2309     Br  0.08845614  0.34278138  0.18798133     0.00600
Br2310     Br  0.14855971  0.41355299  0.24631064    -0.03200
Br2311     Br  0.14923871  0.34318663  0.25935019    -0.04000
Br2312     Br  0.08595739  0.41353204  0.31502205    -0.00100
C2313       C  0.11768179  0.44451437  0.37497806     0.01400
C2314       C  0.10542949  0.45622915  0.39081358     0.04200
C2315       C  0.10400730  0.47930530  0.38956145    -0.11900
C2316       C  0.11491987  0.49078846  0.37260582     0.23500
C2317       C  0.12717238  0.47914764  0.35679605    -0.12500
C2318       C  0.12846971  0.45606710  0.35787826     0.04900
C2319       C  0.11459774  0.51520334  0.37228544     0.27300
C2320       C  0.09846895  0.52663369  0.36023254    -0.13100
C2321       C  0.09768692  0.54980944  0.36081634     0.05400
C2322       C  0.11379697  0.56171388  0.37274867    -0.09100
C2323       C  0.12956539  0.55001105  0.38528689     0.06200
C2324       C  0.13007064  0.52691306  0.38481243    -0.13500
Br2325     Br  0.14258667  0.49498624  0.33395999    -0.05500
Br2326     Br  0.09183825  0.44092841  0.41512202     0.00100
Br2327     Br  0.07437694  0.56470085  0.34516282     0.00500
Br2328     Br  0.15219006  0.51107549  0.40119991    -0.03900
Br2329     Br  0.14456635  0.44037028  0.33542544     0.00600
Br2330     Br  0.08771131  0.49543488  0.41148241    -0.03200
Br2331     Br  0.07788430  0.51034367  0.34241361    -0.04000
Br2332     Br  0.14952036  0.56523104  0.40476982    -0.00100
C2333       C  0.12838458  0.37236210  0.55900612     0.01400
C2334       C  0.14723940  0.36544820  0.54693527     0.04200
C2335       C  0.14713788  0.36600284  0.52377036    -0.11900
C2336       C  0.12873241  0.37404961  0.51239754     0.23500
C2337       C  0.11044995  0.38196261  0.52412208    -0.12500
C2338       C  0.11024714  0.38131131  0.54727780     0.04900
C2339       C  0.12886220  0.37468238  0.48800392     0.27300
C2340       C  0.13657897  0.39352492  0.47687698    -0.13100
C2341       C  0.13679054  0.39408995  0.45374735     0.05400
C2342       C  0.12834711  0.37619852  0.44173416    -0.09100
C2343       C  0.12089223  0.35723217  0.45285640     0.06200
C2344       C  0.12161060  0.35630458  0.47595156    -0.13500
Br2345     Br  0.08577887  0.39409792  0.50819625    -0.05500
Br2346     Br  0.17380586  0.35550432  0.56124388     0.00100
Br2347     Br  0.14817628  0.41955334  0.43854807     0.00500
Br2348     Br  0.11317733  0.32972370  0.49114895    -0.03900
Br2349     Br  0.08566854  0.39475362  0.56238052     0.00600
Br2350     Br  0.17226784  0.35572470  0.50719299    -0.03200
Br2351     Br  0.14665958  0.41858442  0.49343600    -0.04000
Br2352     Br  0.11035656  0.33222053  0.43641543    -0.00100
C2353       C  0.80978657  0.88498694  0.36963549     0.01400
C2354       C  0.79804219  0.89936769  0.38363648     0.04200
C2355       C  0.77490623  0.89843495  0.38463842    -0.11900
C2356       C  0.76326481  0.88363046  0.37120952     0.23500
C2357       C  0.77483073  0.86969342  0.35679547    -0.12500
C2358       C  0.79801129  0.87025573  0.35603953     0.04900
C2359       C  0.73880029  0.88299164  0.37190526     0.27300
C2360       C  0.72785896  0.86838390  0.38623046    -0.13100
C2361       C  0.70468354  0.86759454  0.38665860     0.05400
C2362       C  0.69229785  0.88170138  0.37294318    -0.09100
C2363       C  0.70335318  0.89621471  0.35846215     0.06200
C2364       C  0.72650931  0.89678564  0.35794028    -0.13500
Br2365     Br  0.75867052  0.84959602  0.33833675    -0.05500
Br2366     Br  0.81343118  0.92134481  0.40060821     0.00100
Br2367     Br  0.69008447  0.84768483  0.40669331     0.00500
Br2368     Br  0.74158843  0.91629759  0.33788805    -0.03900
Br2369     Br  0.81336971  0.84998530  0.33707186     0.00600
Br2370     Br  0.75901904  0.91727493  0.40460744    -0.03200
Br2371     Br  0.74478616  0.84958662  0.40538643    -0.04000
Br2372     Br  0.68695722  0.91457487  0.33835145    -0.00100
C2373       C  0.87307264  0.81760049  0.37243703     0.01400
C2374       C  0.88907510  0.80474498  0.36160120     0.04200
C2375       C  0.88736971  0.78163049  0.36162567    -0.11900
C2376       C  0.86943168  0.77119878  0.37204119     0.23500
C2377       C  0.85315253  0.78404371  0.38240739    -0.12500
C2378       C  0.85508653  0.80715498  0.38284170     0.04900
C2379       C  0.86857469  0.74671081  0.37319184     0.27300
C2380       C  0.85771758  0.73444267  0.35680187    -0.13100
C2381       C  0.85836606  0.71123196  0.35725649     0.05400
C2382       C  0.87015329  0.70017903  0.37395185    -0.09100
C2383       C  0.88070183  0.71251913  0.39052210     0.06200
C2384       C  0.87967186  0.73566006  0.39027135    -0.13500
Br2385     Br  0.82819856  0.76987882  0.39597747    -0.05500
Br2386     Br  0.91395576  0.81869682  0.34756967     0.00100
Br2387     Br  0.84412872  0.69464775  0.33429821     0.00500
Br2388     Br  0.89350328  0.75244095  0.41333884    -0.03900
Br2389     Br  0.83264737  0.82451786  0.39710498     0.00600
Br2390     Br  0.90987518  0.76406341  0.34778677    -0.03200
Br2391     Br  0.84231604  0.74955057  0.33354911    -0.04000
Br2392     Br  0.89623603  0.69775816  0.41394492    -0.00100
C2393       C  0.86965418  0.31728676  0.36698318     0.01400
C2394       C  0.87927647  0.30525901  0.34962868     0.04200
C2395       C  0.87917541  0.28209655  0.35004032    -0.11900
C2396       C  0.86936189  0.27081570  0.36776595     0.23500
C2397       C  0.85920679  0.28273464  0.38479883    -0.12500
C2398       C  0.85893601  0.30588782  0.38421739     0.04900
C2399       C  0.86994399  0.24640715  0.36876864     0.27300
C2400       C  0.85216665  0.23396782  0.36065286    -0.13100
C2401       C  0.85252729  0.21086828  0.36220604     0.05400
C2402       C  0.87083234  0.20008641  0.37151648    -0.09100
C2403       C  0.88832576  0.21258502  0.38019945     0.06200
C2404       C  0.88785474  0.23569215  0.37883220    -0.13500
Br2405     Br  0.84635828  0.26710214  0.40930781    -0.05500
Br2406     Br  0.89121087  0.32043210  0.32447834     0.00100
Br2407     Br  0.82720491  0.19410256  0.35315468     0.00500
Br2408     Br  0.91154337  0.25285427  0.39106130    -0.03900
Br2409     Br  0.84406369  0.32174952  0.40729861     0.00600
Br2410     Br  0.89268947  0.26571614  0.32647516    -0.03200
Br2411     Br  0.82715153  0.24868355  0.34782215    -0.04000
Br2412     Br  0.91310119  0.19811880  0.39375014    -0.00100
C2413       C  0.80729570  0.13070010  0.37106474     0.01400
C2414       C  0.79506391  0.12452656  0.39016500     0.04200
C2415       C  0.77192191  0.12299641  0.38933232    -0.11900
C2416       C  0.76054277  0.12879974  0.37009549     0.23500
C2417       C  0.77226273  0.13569026  0.35141538    -0.12500
C2418       C  0.79544248  0.13600022  0.35152065     0.04900
C2419       C  0.73615557  0.12710884  0.36927581     0.27300
C2420       C  0.72622072  0.10886898  0.35910585    -0.13100
C2421       C  0.70314736  0.10738072  0.35780088     0.05400
C2422       C  0.68974025  0.12368440  0.36764339    -0.09100
C2423       C  0.69988681  0.14179318  0.37827233     0.06200
C2424       C  0.72297382  0.14374173  0.37846454    -0.13500
Br2425     Br  0.75613019  0.14489956  0.32559544    -0.05500
Br2426     Br  0.80900131  0.11761587  0.41791726     0.00100
Br2427     Br  0.69042285  0.08342483  0.34127630     0.00500
Br2428     Br  0.73672369  0.16943250  0.39103716    -0.03900
Br2429     Br  0.80994466  0.14397338  0.32429975     0.00600
Br2430     Br  0.75544728  0.11243714  0.41447667    -0.03200
Br2431     Br  0.74447161  0.08596575  0.34681974    -0.04000
Br2432     Br  0.68265550  0.16341297  0.39393754    -0.00100
C2433       C  0.87797048  0.95010017  0.37057297     0.01400
C2434       C  0.89428041  0.96144045  0.38254577     0.04200
C2435       C  0.89441653  0.98460093  0.38299108    -0.11900
C2436       C  0.87861522  0.99659572  0.37098641     0.23500
C2437       C  0.86273590  0.98528595  0.35843349    -0.12500
C2438       C  0.86234207  0.96211502  0.35829172     0.04900
C2439       C  0.87851719  0.02108349  0.37168632     0.27300
C2440       C  0.86295000  0.03217685  0.38476454    -0.13100
C2441       C  0.86188478  0.05529694  0.38445215     0.05400
C2442       C  0.87728791  0.06763837  0.37213712    -0.09100
C2443       C  0.89330410  0.05647203  0.35949064     0.06200
C2444       C  0.89363592  0.03328770  0.35897865    -0.13500
Br2445     Br  0.84143223  0.00165706  0.34149906    -0.05500
Br2446     Br  0.91733182  0.94528083  0.39721629     0.00100
Br2447     Br  0.83796673  0.06973833  0.39936949     0.00500
Br2448     Br  0.91476091  0.01810844  0.34079321    -0.03900
Br2449     Br  0.83984614  0.94693555  0.34184359     0.00600
Br2450     Br  0.91616076  0.99998851  0.40019360    -0.03200
Br2451     Br  0.84312096  0.01558030  0.40326911    -0.04000
Br2452     Br  0.91539383  0.07273672  0.34341056    -0.00100
C2453       C  0.12183073  0.69481118  0.37138287     0.01400
C2454       C  0.14260069  0.70573387  0.36979779     0.04200
C2455       C  0.14382308  0.72889102  0.37063680    -0.11900
C2456       C  0.12460082  0.74151643  0.37250839     0.23500
C2457       C  0.10402923  0.73113766  0.37366641    -0.12500
C2458       C  0.10247401  0.70802200  0.37318398     0.04900
C2459       C  0.12589848  0.76590417  0.37313112     0.27300
C2460       C  0.12816046  0.77678715  0.39332704    -0.13100
C2461       C  0.12935278  0.79990345  0.39406747     0.05400
C2462       C  0.12655626  0.81259375  0.37450034    -0.09100
C2463       C  0.12367236  0.80124642  0.35418814     0.06200
C2464       C  0.12410698  0.77809034  0.35359013    -0.13500
Br2465     Br  0.07786921  0.74910049  0.37614278    -0.05500
Br2466     Br  0.16997309  0.69003258  0.36557618     0.00100
Br2467     Br  0.13575903  0.81309912  0.42230846     0.00500
Br2468     Br  0.12195694  0.76265971  0.32590794    -0.03900
Br2469     Br  0.07322940  0.69560156  0.37534135     0.00600
Br2470     Br  0.17192680  0.74378596  0.36922347    -0.03200
Br2471     Br  0.12909606  0.75967354  0.42013587    -0.04000
Br2472     Br  0.11796477  0.81637736  0.32673525    -0.00100
C2473       C  0.19248801  0.87977108  0.38020374     0.01400
C2474       C  0.20441094  0.86058101  0.38539368     0.04200
C2475       C  0.22755126  0.86127247  0.38651638    -0.11900
C2476       C  0.23884849  0.88107915  0.38218898     0.23500
C2477       C  0.22689849  0.90023891  0.37695815    -0.12500
C2478       C  0.20377091  0.89957690  0.37598187     0.04900
C2479       C  0.26328867  0.88166690  0.38321749     0.27300
C2480       C  0.27390652  0.88788862  0.40280467    -0.13100
C2481       C  0.29704445  0.88756099  0.40409524     0.05400
C2482       C  0.30974221  0.88101256  0.38581740    -0.09100
C2483       C  0.29902039  0.87433901  0.36634386     0.06200
C2484       C  0.27589268  0.87512670  0.36491139    -0.13500
Br2485     Br  0.24226080  0.92739279  0.37122389    -0.05500
Br2486     Br  0.18909906  0.83317872  0.39008112     0.00100
Br2487     Br  0.31116819  0.89442175  0.43148701     0.00500
Br2488     Br  0.26132079  0.86759001  0.33777817    -0.03900
Br2489     Br  0.18743491  0.92592207  0.36926292     0.00600
Br2490     Br  0.24391637  0.83515649  0.39409300    -0.03200
Br2491     Br  0.25657567  0.89669344  0.42789806    -0.04000
Br2492     Br  0.31586582  0.86384045  0.34161803    -0.00100
C2493       C  0.94268147  0.88342858  0.37470953     0.01400
C2494       C  0.95497553  0.89597605  0.35936134     0.04200
C2495       C  0.97813619  0.89551171  0.35974413    -0.11900
C2496       C  0.98928186  0.88351140  0.37608813     0.23500
C2497       C  0.97721358  0.87180046  0.39203368    -0.12500
C2498       C  0.95402578  0.87132771  0.39112014     0.04900
C2499       C  0.01373642  0.88258049  0.37587800     0.27300
C2500       C  0.02453524  0.86666739  0.36298155    -0.13100
C2501       C  0.04768173  0.86637420  0.36170718     0.05400
C2502       C  0.06019755  0.88134786  0.37426062    -0.09100
C2503       C  0.04930696  0.89733889  0.38714924     0.06200
C2504       C  0.02615878  0.89803197  0.38780797    -0.13500
Br2505     Br  0.99269518  0.85617129  0.41494546    -0.05500
Br2506     Br  0.94046441  0.91503158  0.33848500     0.00100
Br2507     Br  0.06200791  0.84509592  0.34308575     0.00500
Br2508     Br  0.01136953  0.92014479  0.40506235    -0.03900
Br2509     Br  0.93826350  0.85284215  0.41165267     0.00600
Br2510     Br  0.99485603  0.91108489  0.33763801    -0.03200
Br2511     Br  0.00739362  0.84491431  0.34753778    -0.04000
Br2512     Br  0.06601624  0.91917715  0.40306023    -0.00100
C2513       C  0.19041107  0.12386110  0.37395367     0.01400
C2514       C  0.20317800  0.13900710  0.36178762     0.04200
C2515       C  0.22626660  0.13766350  0.36205554    -0.11900
C2516       C  0.23676840  0.12097886  0.37417177     0.23500
C2517       C  0.22411811  0.10553963  0.38599206    -0.12500
C2518       C  0.20100204  0.10720651  0.38626259     0.04900
C2519       C  0.26116147  0.12021151  0.37503187     0.27300
C2520       C  0.27306781  0.10930533  0.35845855    -0.13100
C2521       C  0.29621283  0.10906805  0.35902949     0.05400
C2522       C  0.30756174  0.11919300  0.37656386    -0.09100
C2523       C  0.29559325  0.13055887  0.39288738     0.06200
C2524       C  0.27245010  0.13124431  0.39195907    -0.13500
Br2525     Br  0.23857838  0.08197820  0.40158518    -0.05500
Br2526     Br  0.18930332  0.16265688  0.34592867     0.00100
Br2527     Br  0.31232401  0.09639888  0.33478776     0.00500
Br2528     Br  0.25603161  0.14777742  0.41349852    -0.03900
Br2529     Br  0.18402684  0.08641601  0.40334825     0.00600
Br2530     Br  0.24371255  0.15894945  0.34615919    -0.03200
Br2531     Br  0.25753436  0.09516748  0.33471019    -0.04000
Br2532     Br  0.31070350  0.14477286  0.41685419    -0.00100
C2533       C  0.12899002  0.31276372  0.37291525     0.01400
C2534       C  0.11397347  0.30061743  0.36001403     0.04200
C2535       C  0.11495064  0.27752794  0.35977325    -0.11900
C2536       C  0.13181423  0.26646835  0.37117133     0.23500
C2537       C  0.14769410  0.27859181  0.38288102    -0.12500
C2538       C  0.14603357  0.30163840  0.38418782     0.04900
C2539       C  0.13186202  0.24205567  0.37200824     0.27300
C2540       C  0.12395626  0.23126924  0.39085691    -0.13100
C2541       C  0.12333977  0.20814402  0.39177349     0.05400
C2542       C  0.12897121  0.19540488  0.37294091    -0.09100
C2543       C  0.13604580  0.20669609  0.35356797     0.06200
C2544       C  0.13851553  0.22975205  0.35365227    -0.13500
Br2545     Br  0.17138512  0.26344615  0.39763296    -0.05500
Br2546     Br  0.09282301  0.31540896  0.34146958     0.00100
Br2547     Br  0.11385147  0.19497369  0.41913745     0.00500
Br2548     Br  0.15107590  0.24482602  0.32855492    -0.03900
Br2549     Br  0.16642282  0.31754690  0.40261713     0.00600
Br2550     Br  0.09259809  0.26091228  0.34454466    -0.03200
Br2551     Br  0.11312132  0.24857327  0.41525035    -0.04000
Br2552     Br  0.14190558  0.19171243  0.32613637    -0.00100
C2553       C  0.94049022  0.13666213  0.37338092     0.01400
C2554       C  0.95197660  0.12167342  0.38700225     0.04200
C2555       C  0.97512696  0.12176620  0.38750513    -0.11900
C2556       C  0.98703843  0.13674172  0.37444219     0.23500
C2557       C  0.97574182  0.15179931  0.36094388    -0.12500
C2558       C  0.95253841  0.15183315  0.36040865     0.04900
C2559       C  0.01149044  0.13595730  0.37431913     0.27300
C2560       C  0.02368270  0.14846617  0.38946706    -0.13100
C2561       C  0.04683685  0.14714917  0.38971773     0.05400
C2562       C  0.05797511  0.13296003  0.37497098    -0.09100
C2563       C  0.04553176  0.12007697  0.36013217     0.06200
C2564       C  0.02246054  0.12195540  0.35954380    -0.13500
Br2565     Br  0.99229881  0.17217907  0.34303204    -0.05500
Br2566     Br  0.93628569  0.09994390  0.40414484     0.00100
Br2567     Br  0.06290252  0.16553355  0.40991212     0.00500
Br2568     Br  0.00564443  0.10527475  0.33847322    -0.03900
Br2569     Br  0.93753617  0.17334538  0.34250125     0.00600
Br2570     Br  0.99075399  0.10097289  0.40573135    -0.03200
Br2571     Br  0.00847125  0.16746220  0.40984555    -0.04000
Br2572     Br  0.05962209  0.09844334  0.34163548    -0.00100
C2573       C  0.12398100  0.94550787  0.37910893     0.01400
C2574       C  0.11060944  0.95661583  0.36358573     0.04200
C2575       C  0.10968627  0.97972491  0.36339167    -0.11900
C2576       C  0.12151199  0.99194125  0.37905007     0.23500
C2577       C  0.13383458  0.98097447  0.39531362    -0.12500
C2578       C  0.13532138  0.95785416  0.39524701     0.04900
C2579       C  0.12141605  0.01635234  0.37800463     0.27300
C2580       C  0.13896446  0.02751505  0.36770837    -0.13100
C2581       C  0.13864383  0.05058748  0.36598113     0.05400
C2582       C  0.12118218  0.06267705  0.37534669    -0.09100
C2583       C  0.10349072  0.05148929  0.38539927     0.06200
C2584       C  0.10353280  0.02835765  0.38657855    -0.13500
Br2585     Br  0.14857566  0.99781913  0.41777581    -0.05500
Br2586     Br  0.09220292  0.94047558  0.34332554     0.00100
Br2587     Br  0.16226136  0.06552072  0.35081316     0.00500
Br2588     Br  0.07897977  0.01298355  0.39962137    -0.03900
Br2589     Br  0.15370997  0.94357509  0.41688897     0.00600
Br2590     Br  0.09204304  0.99481392  0.34169921    -0.03200
Br2591     Br  0.16351065  0.01109628  0.35602942    -0.04000
Br2592     Br  0.07853511  0.06778135  0.39628421    -0.00100
loop_ 
_geom_bond_atom_site_label_1 
_geom_bond_atom_site_label_2 
_geom_bond_distance 
_geom_bond_site_symmetry_2 
_ccdc_geom_bond_type 
O1            V9   1.903       .  S
O1           C11   1.265       .  A
O2            V9   1.904       .  S
O2           C12   1.266       .  A
O3            V9   1.902       .  S
O3           C13   1.264       .  A
O4            V9   1.898       .  S
O4           C14   1.263       .  A
O5           V10   1.903       .  S
O5           C14   1.265       .  A
O6           V10   1.900       .  S
O6           C13   1.265       .  A
O7           V10   1.899       .  S
O7           C12   1.263       .  A
O8           V10   1.900       .  S
O8           C11   1.264       .  A
V9           V10   2.083       .  T
C11        C2582   1.477       .  S
C12        C2542   1.504       .  S
C13        C2562   1.489       .  S
C14        C2513   1.481       .  S
O15          V23   1.897       .  S
O15          C25   1.263       .  A
O16          V23   1.901       .  S
O16          C26   1.264       .  A
O17          V23   1.894       .  S
O17          C27   1.263       .  A
O18          V23   1.904       .  S
O18          C28   1.264       .  A
O19          V24   1.901       .  S
O19          C28   1.264       .  A
O20          V24   1.909       .  S
O20          C27   1.266       .  A
O21          V24   1.897       .  S
O21          C26   1.264       .  A
O22          V24   1.899       .  S
O22          C25   1.264       .  A
V23          V24   2.083       .  T
C25        C2462   1.503       .  S
C26        C2573   1.486       .  S
C27        C2502   1.482       .  S
C28        C2473   1.476       .  S
O29          V37   1.902       .  S
O29          C39   1.264       .  A
O30          V37   1.907       .  S
O30          C40   1.267       .  A
O31          V37   1.899       .  S
O31          C41   1.265       .  A
O32          V37   1.903       .  S
O32          C42   1.264       .  A
O33          V38   1.902       .  S
O33          C42   1.265       .  A
O34          V38   1.907       .  S
O34          C41   1.266       .  A
O35          V38   1.900       .  S
O35          C40   1.264       .  A
O36          V38   1.902       .  S
O36          C39   1.264       .  A
V37          V38   2.082       .  T
C39        C2402   1.478       .  S
C40        C2442   1.487       .  S
C41        C2553   1.487       .  S
C42        C2413   1.505       .  S
O43          V51   1.901       .  S
O43          C53   1.264       .  A
O44          V51   1.898       .  S
O44          C54   1.264       .  A
O45          V51   1.907       .  S
O45          C55   1.266       .  A
O46          V51   1.905       .  S
O46          C56   1.266       .  A
O47          V52   1.902       .  S
O47          C56   1.264       .  A
O48          V52   1.900       .  S
O48          C55   1.264       .  A
O49          V52   1.908       .  S
O49          C54   1.266       .  A
O50          V52   1.906       .  S
O50          C53   1.267       .  A
V51          V52   2.086       .  T
C53        C2493   1.491       .  S
C54        C2353   1.486       .  S
C55        C2373   1.483       .  S
C56        C2433   1.482       .  S
O57          V65   1.895       .  S
O57          C67   1.263       .  A
O58          V65   1.894       .  S
O58          C68   1.262       .  A
O59          V65   1.894       .  S
O59          C69   1.264       .  A
O60          V65   1.901       .  S
O60          C70   1.264       .  A
O61          V66   1.895       .  S
O61          C70   1.263       .  A
O62          V66   1.895       .  S
O62          C69   1.262       .  A
O63          V66   1.901       .  S
O63          C68   1.265       .  A
O64          V66   1.905       .  S
O64          C67   1.266       .  A
V65          V66   2.088       .  T
C67        C2313   1.479       .  S
C68        C2533   1.481       .  S
C69        C2302   1.470       .  S
C70        C2342   1.472       .  S
O71          V79   1.907       .  S
O71          C81   1.266       .  A
O72          V79   1.914       .  S
O72          C82   1.268       .  A
O73          V79   1.897       .  S
O73          C83   1.262       .  A
O74          V79   1.894       .  S
O74          C84   1.263       .  A
O75          V80   1.912       .  S
O75          C84   1.267       .  A
O76          V80   1.905       .  S
O76          C83   1.267       .  A
O77          V80   1.891       .  S
O77          C82   1.261       .  A
O78          V80   1.897       .  S
O78          C81   1.263       .  A
V79          V80   2.081       .  T
C81        C2282   1.490       .  S
C82        C2233   1.482       .  S
C83        C2333   1.498       .  S
C84        C2253   1.501       .  S
O85          V93   1.896       .  S
O85          C95   1.263       .  A
O86          V93   1.897       .  S
O86          C96   1.262       .  A
O87          V93   1.902       .  S
O87          C97   1.265       .  A
O88          V93   1.897       .  S
O88          C98   1.265       .  A
O89          V94   1.903       .  S
O89          C98   1.264       .  A
O90          V94   1.902       .  S
O90          C97   1.264       .  A
O91          V94   1.903       .  S
O91          C96   1.264       .  A
O92          V94   1.902       .  S
O92          C95   1.265       .  A
V93          V94   2.082       .  T
C95        C2222   1.475       .  S
C96        C2202   1.471       .  S
C97        C2453   1.509       .  S
C98        C2322   1.488       .  S
O99         V107   1.903       .  S
O99         C109   1.265       .  A
O100        V107   1.903       .  S
O100        C110   1.265       .  A
O101        V107   1.903       .  S
O101        C111   1.265       .  A
O102        V107   1.909       .  S
O102        C112   1.266       .  A
O103        V108   1.905       .  S
O103        C112   1.265       .  A
O104        V108   1.902       .  S
O104        C111   1.265       .  A
O105        V108   1.898       .  S
O105        C110   1.264       .  A
O106        V108   1.899       .  S
O106        C109   1.264       .  A
V107        V108   2.087       .  T
C109       C2273   1.479       .  S
C110       C2173   1.485       .  S
C111       C2213   1.482       .  S
C112       C2153   1.486       .  S
O113        V121   1.902       .  S
O113        C123   1.265       .  A
O114        V121   1.897       .  S
O114        C124   1.264       .  A
O115        V121   1.903       .  S
O115        C125   1.264       .  A
O116        V121   1.900       .  S
O116        C126   1.262       .  A
O117        V122   1.898       .  S
O117        C126   1.266       .  A
O118        V122   1.899       .  S
O118        C125   1.264       .  A
O119        V122   1.906       .  S
O119        C124   1.265       .  A
O120        V122   1.899       .  S
O120        C123   1.264       .  A
V121        V122   2.087       .  T
C123       C2142   1.481       .  S
C124       C2102   1.479       .  S
C125       C2113   1.476       .  S
C126       C2422   1.489       .  S
O127        V135   1.896       .  S
O127        C137   1.264       .  A
O128        V135   1.901       .  S
O128        C138   1.264       .  A
O129        V135   1.898       .  S
O129        C139   1.264       .  A
O130        V135   1.900       .  S
O130        C140   1.264       .  A
O131        V136   1.902       .  S
O131        C140   1.264       .  A
O132        V136   1.903       .  S
O132        C139   1.264       .  A
O133        V136   1.902       .  S
O133        C138   1.265       .  A
O134        V136   1.904       .  S
O134        C137   1.265       .  A
V135        V136   2.083       .  T
C137       C2133   1.485       .  S
C138       C2053   1.489       .  S
C139       C2033   1.478       .  S
C140       C2073   1.503       .  S
O141        V149   1.900       .  S
O141        C151   1.265       .  A
O142        V149   1.903       .  S
O142        C152   1.264       .  A
O143        V149   1.901       .  S
O143        C153   1.264       .  A
O144        V149   1.902       .  S
O144        C154   1.265       .  A
O145        V150   1.896       .  S
O145        C154   1.263       .  A
O146        V150   1.900       .  S
O146        C153   1.264       .  A
O147        V150   1.901       .  S
O147        C152   1.264       .  A
O148        V150   1.903       .  S
O148        C151   1.265       .  A
V149        V150   2.083       .  T
C151       C2522   1.480       .  S
C152       C2122   1.505       .  S
C153       C2013   1.481       .  S
C154       C2002   1.482       .  S
O155        V163   1.904       .  S
O155        C165   1.265       .  A
O156        V163   1.903       .  S
O156        C166   1.265       .  A
O157        V163   1.899       .  S
O157        C167   1.264       .  A
O158        V163   1.895       .  S
O158        C168   1.264       .  A
O159        V164   1.902       .  S
O159        C168   1.265       .  A
O160        V164   1.905       .  S
O160        C167   1.266       .  A
O161        V164   1.902       .  S
O161        C166   1.264       .  A
O162        V164   1.901       .  S
O162        C165   1.264       .  A
V163        V164   2.086       .  T
C165       C1973   1.480       .  S
C166       C2082   1.478       .  S
C167       C1962   1.489       .  S
C168       C2022   1.485       .  S
O169        V177   1.903       .  S
O169        C179   1.266       .  A
O170        V177   1.907       .  S
O170        C180   1.266       .  A
O171        V177   1.903       .  S
O171        C181   1.265       .  A
O172        V177   1.906       .  S
O172        C182   1.265       .  A
O173        V178   1.901       .  S
O173        C182   1.265       .  A
O174        V178   1.909       .  S
O174        C181   1.266       .  A
O175        V178   1.898       .  S
O175        C180   1.264       .  A
O176        V178   1.901       .  S
O176        C179   1.264       .  A
V177        V178   2.085       .  T
C179       C1933   1.492       .  S
C180       C1893   1.481       .  S
C181       C2382   1.485       .  S
C182       C1913   1.488       .  S
O183        V191   1.905       .  S
O183        C193   1.265       .  A
O184        V191   1.904       .  S
O184        C194   1.265       .  A
O185        V191   1.898       .  S
O185        C195   1.264       .  A
O186        V191   1.898       .  S
O186        C196   1.263       .  A
O187        V192   1.903       .  S
O187        C196   1.266       .  A
O188        V192   1.907       .  S
O188        C195   1.266       .  A
O189        V192   1.899       .  S
O189        C194   1.263       .  A
O190        V192   1.898       .  S
O190        C193   1.263       .  A
V191        V192   2.086       .  T
C193       C1942   1.475       .  S
C194       C1853   1.478       .  S
C195       C1882   1.491       .  S
C196       C1833   1.488       .  S
O197        V205   1.906       .  S
O197        C207   1.266       .  A
O198        V205   1.908       .  S
O198        C208   1.267       .  A
O199        V205   1.901       .  S
O199        C209   1.263       .  A
O200        V205   1.906       .  S
O200        C210   1.266       .  A
O201        V206   1.908       .  S
O201        C210   1.266       .  A
O202        V206   1.910       .  S
O202        C209   1.267       .  A
O203        V206   1.886       .  S
O203        C208   1.260       .  A
O204        V206   1.886       .  S
O204        C207   1.261       .  A
V205        V206   2.083       .  T
C207       C1822   1.474       .  S
C208       C1793   1.498       .  S
C209       C2393   1.484       .  S
C210       C1922   1.498       .  S
O211        V219   1.898       .  S
O211        C221   1.264       .  A
O212        V219   1.896       .  S
O212        C222   1.263       .  A
O213        V219   1.900       .  S
O213        C223   1.264       .  A
O214        V219   1.902       .  S
O214        C224   1.265       .  A
O215        V220   1.903       .  S
O215        C224   1.265       .  A
O216        V220   1.898       .  S
O216        C223   1.264       .  A
O217        V220   1.893       .  S
O217        C222   1.263       .  A
O218        V220   1.897       .  S
O218        C221   1.263       .  A
V219        V220   2.087       .  T
C221       C1873   1.473       .  S
C222       C1773   1.471       .  S
C223       C1813   1.480       .  S
C224       C1753   1.489       .  S
O225        V233   1.905       .  S
O225        C235   1.264       .  A
O226        V233   1.906       .  S
O226        C236   1.266       .  A
O227        V233   1.916       .  S
O227        C237   1.268       .  A
O228        V233   1.909       .  S
O228        C238   1.267       .  A
O229        V234   1.904       .  S
O229        C238   1.265       .  A
O230        V234   1.904       .  S
O230        C237   1.265       .  A
O231        V234   1.904       .  S
O231        C236   1.265       .  A
O232        V234   1.910       .  S
O232        C235   1.267       .  A
V233        V234   2.082       .  T
C235       C2482   1.484       .  S
C236       C1722   1.486       .  S
C237       C1733   1.510       .  S
C238       C1702   1.491       .  S
O239        V247   1.901       .  S
O239        C249   1.266       .  A
O240        V247   1.902       .  S
O240        C250   1.266       .  A
O241        V247   1.907       .  S
O241        C251   1.265       .  A
O242        V247   1.904       .  S
O242        C252   1.264       .  A
O243        V248   1.908       .  S
O243        C252   1.265       .  A
O244        V248   1.909       .  S
O244        C251   1.266       .  A
O245        V248   1.902       .  S
O245        C250   1.264       .  A
O246        V248   1.903       .  S
O246        C249   1.264       .  A
V247        V248   2.084       .  T
C249       C1633   1.494       .  S
C250       C1673   1.491       .  S
C251       C1653   1.482       .  S
C252       C1742   1.481       .  S
O253        V261   1.903       .  S
O253        C263   1.264       .  A
O254        V261   1.908       .  S
O254        C264   1.266       .  A
O255        V261   1.895       .  S
O255        C265   1.264       .  A
O256        V261   1.898       .  S
O256        C266   1.263       .  A
O257        V262   1.908       .  S
O257        C266   1.267       .  A
O258        V262   1.908       .  S
O258        C265   1.267       .  A
O259        V262   1.901       .  S
O259        C264   1.263       .  A
O260        V262   1.906       .  S
O260        C263   1.265       .  A
V261        V262   2.082       .  T
C263       C1682   1.481       .  S
C264       C1593   1.480       .  S
C265       C1582   1.489       .  S
C266       C1613   1.503       .  S
O267        V275   1.905       .  S
O267        C277   1.266       .  A
O268        V275   1.905       .  S
O268        C278   1.265       .  A
O269        V275   1.897       .  S
O269        C279   1.263       .  A
O270        V275   1.897       .  S
O270        C280   1.264       .  A
O271        V276   1.905       .  S
O271        C280   1.266       .  A
O272        V276   1.903       .  S
O272        C279   1.265       .  A
O273        V276   1.902       .  S
O273        C278   1.265       .  A
O274        V276   1.906       .  S
O274        C277   1.265       .  A
V275        V276   2.086       .  T
C277       C1622   1.483       .  S
C278       C1553   1.484       .  S
C279       C1713   1.484       .  S
C280       C2362   1.483       .  S
O281        V289   1.900       .  S
O281        C291   1.264       .  A
O282        V289   1.899       .  S
O282        C292   1.263       .  A
O283        V289   1.906       .  S
O283        C293   1.266       .  A
O284        V289   1.902       .  S
O284        C294   1.265       .  A
O285        V290   1.900       .  S
O285        C294   1.264       .  A
O286        V290   1.904       .  S
O286        C293   1.266       .  A
O287        V290   1.907       .  S
O287        C292   1.266       .  A
O288        V290   1.908       .  S
O288        C291   1.266       .  A
V289        V290   2.086       .  T
C291       C2182   1.482       .  S
C292       C1533   1.480       .  S
C293       C1642   1.493       .  S
C294       C1513   1.486       .  S
O295        V303   1.900       .  S
O295        C305   1.264       .  A
O296        V303   1.903       .  S
O296        C306   1.265       .  A
O297        V303   1.901       .  S
O297        C307   1.265       .  A
O298        V303   1.904       .  S
O298        C308   1.265       .  A
O299        V304   1.905       .  S
O299        C308   1.265       .  A
O300        V304   1.903       .  S
O300        C307   1.265       .  A
O301        V304   1.903       .  S
O301        C306   1.264       .  A
O302        V304   1.909       .  S
O302        C305   1.266       .  A
V303        V304   2.082       .  T
C305       C1982   1.483       .  S
C306       C1493   1.481       .  S
C307       C2242   1.486       .  S
C308       C1542   1.508       .  S
O309        V317   1.901       .  S
O309        C319   1.265       .  A
O310        V317   1.906       .  S
O310        C320   1.265       .  A
O311        V317   1.903       .  S
O311        C321   1.265       .  A
O312        V317   1.900       .  S
O312        C322   1.265       .  A
O313        V318   1.906       .  S
O313        C322   1.265       .  A
O314        V318   1.900       .  S
O314        C321   1.264       .  A
O315        V318   1.907       .  S
O315        C320   1.267       .  A
O316        V318   1.909       .  S
O316        C319   1.266       .  A
V317        V318   2.083       .  T
C319       C1502   1.498       .  S
C320       C2042   1.498       .  S
C321       C1782   1.482       .  S
C322       C1473   1.487       .  S
O323        V331   1.904       .  S
O323        C333   1.265       .  A
O324        V331   1.903       .  S
O324        C334   1.264       .  A
O325        V331   1.904       .  S
O325        C335   1.266       .  A
O326        V331   1.902       .  S
O326        C336   1.264       .  A
O327        V332   1.903       .  S
O327        C336   1.265       .  A
O328        V332   1.905       .  S
O328        C335   1.266       .  A
O329        V332   1.906       .  S
O329        C334   1.266       .  A
O330        V332   1.904       .  S
O330        C333   1.264       .  A
V331        V332   2.083       .  T
C333       C1602   1.481       .  S
C334       C1522   1.483       .  S
C335       C1482   1.490       .  S
C336       C1842   1.509       .  S
O337        V345   1.896       .  S
O337        C347   1.264       .  A
O338        V345   1.897       .  S
O338        C348   1.264       .  A
O339        V345   1.902       .  S
O339        C349   1.265       .  A
O340        V345   1.902       .  S
O340        C350   1.265       .  A
O341        V346   1.904       .  S
O341        C350   1.265       .  A
O342        V346   1.906       .  S
O342        C349   1.265       .  A
O343        V346   1.904       .  S
O343        C348   1.265       .  A
O344        V346   1.904       .  S
O344        C347   1.265       .  A
V345        V346   2.086       .  T
C347       C1993   1.480       .  S
C348       C1462   1.484       .  S
C349       C1433   1.485       .  S
C350       C1413   1.484       .  S
O351        V359   1.901       .  S
O351        C361   1.265       .  A
O352        V359   1.908       .  S
O352        C362   1.266       .  A
O353        V359   1.902       .  S
O353        C363   1.264       .  A
O354        V359   1.897       .  S
O354        C364   1.263       .  A
O355        V360   1.915       .  S
O355        C364   1.268       .  A
O356        V360   1.912       .  S
O356        C363   1.268       .  A
O357        V360   1.900       .  S
O357        C362   1.264       .  A
O358        V360   1.899       .  S
O358        C361   1.264       .  A
V359        V360   2.082       .  T
C361       C1393   1.481       .  S
C362       C1373   1.503       .  S
C363       C1953   1.502       .  S
C364       C1453   1.486       .  S
O365        V373   1.907       .  S
O365        C375   1.265       .  A
O366        V373   1.904       .  S
O366        C376   1.266       .  A
O367        V373   1.901       .  S
O367        C377   1.263       .  A
O368        V373   1.894       .  S
O368        C378   1.262       .  A
O369        V374   1.904       .  S
O369        C378   1.265       .  A
O370        V374   1.902       .  S
O370        C377   1.264       .  A
O371        V374   1.893       .  S
O371        C376   1.262       .  A
O372        V374   1.891       .  S
O372        C375   1.262       .  A
V373        V374   2.084       .  T
C375       C1333   1.502       .  S
C376       C1402   1.481       .  S
C377       C1662   1.473       .  S
C378       C1353   1.473       .  S
O379        V387   1.904       .  S
O379        C389   1.265       .  A
O380        V387   1.904       .  S
O380        C390   1.265       .  A
O381        V387   1.893       .  S
O381        C391   1.263       .  A
O382        V387   1.896       .  S
O382        C392   1.263       .  A
O383        V388   1.908       .  S
O383        C392   1.266       .  A
O384        V388   1.902       .  S
O384        C391   1.265       .  A
O385        V388   1.903       .  S
O385        C390   1.264       .  A
O386        V388   1.904       .  S
O386        C389   1.265       .  A
V387        V388   2.087       .  T
C389       C1442   1.488       .  S
C390       C1313   1.478       .  S
C391       C1362   1.479       .  S
C392       C1693   1.482       .  S
O393        V401   1.904       .  S
O393        C403   1.265       .  A
O394        V401   1.903       .  S
O394        C404   1.265       .  A
O395        V401   1.903       .  S
O395        C405   1.264       .  A
O396        V401   1.907       .  S
O396        C406   1.265       .  A
O397        V402   1.904       .  S
O397        C406   1.265       .  A
O398        V402   1.904       .  S
O398        C405   1.265       .  A
O399        V402   1.904       .  S
O399        C404   1.265       .  A
O400        V402   1.900       .  S
O400        C403   1.265       .  A
V401        V402   2.081       .  T
C403       C1802   1.495       .  S
C404       C1293   1.488       .  S
C405       C1273   1.479       .  S
C406       C1262   1.513       .  S
O407        V415   1.905       .  S
O407        C417   1.267       .  A
O408        V415   1.898       .  S
O408        C418   1.268       .  A
O409        V415   1.903       .  S
O409        C419   1.265       .  A
O410        V415   1.910       .  S
O410        C420   1.266       .  A
O411        V416   1.915       .  S
O411        C420   1.269       .  A
O412        V416   1.907       .  S
O412        C419   1.266       .  A
O413        V416   1.908       .  S
O413        C418   1.262       .  A
O414        V416   1.902       .  S
O414        C417   1.263       .  A
V415        V416   2.083       .  T
C417       C1242   1.492       .  S
C418       C1213   1.490       .  S
C419       C1302   1.487       .  S
C420       C1762   1.507       .  S
O421        V429   1.905       .  S
O421        C431   1.266       .  A
O422        V429   1.909       .  S
O422        C432   1.266       .  A
O423        V429   1.895       .  S
O423        C433   1.264       .  A
O424        V429   1.900       .  S
O424        C434   1.264       .  A
O425        V430   1.906       .  S
O425        C434   1.267       .  A
O426        V430   1.906       .  S
O426        C433   1.266       .  A
O427        V430   1.907       .  S
O427        C432   1.265       .  A
O428        V430   1.903       .  S
O428        C431   1.265       .  A
V429        V430   2.081       .  T
C431       C1282   1.491       .  S
C432       C1182   1.482       .  S
C433       C2293   1.485       .  S
C434       C1193   1.493       .  S
O435        V443   1.908       .  S
O435        C445   1.265       .  A
O436        V443   1.902       .  S
O436        C446   1.265       .  A
O437        V443   1.908       .  S
O437        C447   1.266       .  A
O438        V443   1.907       .  S
O438        C448   1.266       .  A
O439        V444   1.902       .  S
O439        C448   1.264       .  A
O440        V444   1.897       .  S
O440        C447   1.264       .  A
O441        V444   1.907       .  S
O441        C446   1.266       .  A
O442        V444   1.902       .  S
O442        C445   1.265       .  A
V443        V444   2.082       .  T
C445       C1153   1.486       .  S
C446       C1233   1.489       .  S
C447       C1202   1.484       .  S
C448       C2262   1.508       .  S
O449        V457   1.911       .  S
O449        C459   1.267       .  A
O450        V457   1.910       .  S
O450        C460   1.266       .  A
O451        V457   1.904       .  S
O451        C461   1.265       .  A
O452        V457   1.904       .  S
O452        C462   1.265       .  A
O453        V458   1.905       .  S
O453        C462   1.266       .  A
O454        V458   1.900       .  S
O454        C461   1.263       .  A
O455        V458   1.903       .  S
O455        C460   1.265       .  A
O456        V458   1.902       .  S
O456        C459   1.265       .  A
V457        V458   2.082       .  T
C459       C1093   1.492       .  S
C460       C1113   1.513       .  S
C461       C1133   1.477       .  S
C462       C1562   1.489       .  S
O463        V471   1.897       .  S
O463        C473   1.264       .  A
O464        V471   1.902       .  S
O464        C474   1.266       .  A
O465        V471   1.900       .  S
O465        C475   1.263       .  A
O466        V471   1.905       .  S
O466        C476   1.266       .  A
O467        V472   1.900       .  S
O467        C476   1.264       .  A
O468        V472   1.904       .  S
O468        C475   1.265       .  A
O469        V472   1.905       .  S
O469        C474   1.263       .  A
O470        V472   1.906       .  S
O470        C473   1.265       .  A
V471        V472   2.083       .  T
C473       C1573   1.484       .  S
C474       C1142   1.509       .  S
C475       C1062   1.476       .  S
C476       C1073   1.487       .  S
O477        V485   1.907       .  S
O477        C487   1.266       .  A
O478        V485   1.908       .  S
O478        C488   1.266       .  A
O479        V485   1.898       .  S
O479        C489   1.264       .  A
O480        V485   1.901       .  S
O480        C490   1.264       .  A
O481        V486   1.910       .  S
O481        C490   1.267       .  A
O482        V486   1.907       .  S
O482        C489   1.266       .  A
O483        V486   1.903       .  S
O483        C488   1.265       .  A
O484        V486   1.902       .  S
O484        C487   1.265       .  A
V485        V486   2.086       .  T
C487       C1082   1.489       .  S
C488       C1013   1.488       .  S
C489       C2062   1.484       .  S
C490       C1033   1.488       .  S
O491        V499   1.908       .  S
O491        C501   1.266       .  A
O492        V499   1.909       .  S
O492        C502   1.267       .  A
O493        V499   1.899       .  S
O493        C503   1.263       .  A
O494        V499   1.899       .  S
O494        C504   1.263       .  A
O495        V500   1.909       .  S
O495        C504   1.266       .  A
O496        V500   1.907       .  S
O496        C503   1.266       .  A
O497        V500   1.901       .  S
O497        C502   1.264       .  A
O498        V500   1.898       .  S
O498        C501   1.264       .  A
V499        V500   2.086       .  T
C501       C2093   1.488       .  S
C502       C1042   1.493       .  S
C503       C1122   1.479       .  S
C504        C993   1.479       .  S
O505        V513   1.906       .  S
O505        C515   1.265       .  A
O506        V513   1.906       .  S
O506        C516   1.266       .  A
O507        V513   1.903       .  S
O507        C517   1.266       .  A
O508        V513   1.905       .  S
O508        C518   1.265       .  A
O509        V514   1.898       .  S
O509        C518   1.264       .  A
O510        V514   1.901       .  S
O510        C517   1.264       .  A
O511        V514   1.908       .  S
O511        C516   1.266       .  A
O512        V514   1.907       .  S
O512        C515   1.265       .  A
V513        V514   2.086       .  T
C515       C2193   1.482       .  S
C516        C973   1.488       .  S
C517        C962   1.487       .  S
C518        C942   1.484       .  S
O519        V527   1.898       .  S
O519        C529   1.263       .  A
O520        V527   1.903       .  S
O520        C530   1.264       .  A
O521        V527   1.910       .  S
O521        C531   1.268       .  A
O522        V527   1.917       .  S
O522        C532   1.269       .  A
O523        V528   1.903       .  S
O523        C532   1.265       .  A
O524        V528   1.904       .  S
O524        C531   1.264       .  A
O525        V528   1.905       .  S
O525        C530   1.267       .  A
O526        V528   1.911       .  S
O526        C529   1.267       .  A
V527        V528   2.080       .  T
C529        C902   1.488       .  S
C530        C922   1.497       .  S
C531        C982   1.504       .  S
C532       C2162   1.498       .  S
O533        V541   1.900       .  S
O533        C543   1.264       .  A
O534        V541   1.903       .  S
O534        C544   1.264       .  A
O535        V541   1.904       .  S
O535        C545   1.266       .  A
O536        V541   1.906       .  S
O536        C546   1.266       .  A
O537        V542   1.901       .  S
O537        C546   1.265       .  A
O538        V542   1.907       .  S
O538        C545   1.266       .  A
O539        V542   1.901       .  S
O539        C544   1.265       .  A
O540        V542   1.904       .  S
O540        C543   1.265       .  A
V541        V542   2.084       .  T
C543        C913   1.479       .  S
C544        C862   1.489       .  S
C545        C873   1.494       .  S
C546       C1862   1.485       .  S
O547        V555   1.910       .  S
O547        C557   1.267       .  A
O548        V555   1.913       .  S
O548        C558   1.268       .  A
O549        V555   1.903       .  S
O549        C559   1.264       .  A
O550        V555   1.899       .  S
O550        C560   1.264       .  A
O551        V556   1.908       .  S
O551        C560   1.266       .  A
O552        V556   1.907       .  S
O552        C559   1.266       .  A
O553        V556   1.898       .  S
O553        C558   1.263       .  A
O554        V556   1.895       .  S
O554        C557   1.263       .  A
V555        V556   2.086       .  T
C557       C1902   1.487       .  S
C558        C882   1.487       .  S
C559        C953   1.486       .  S
C560        C833   1.484       .  S
O561        V569   1.910       .  S
O561        C571   1.267       .  A
O562        V569   1.909       .  S
O562        C572   1.266       .  A
O563        V569   1.898       .  S
O563        C573   1.263       .  A
O564        V569   1.901       .  S
O564        C574   1.264       .  A
O565        V570   1.902       .  S
O565        C574   1.264       .  A
O566        V570   1.897       .  S
O566        C573   1.264       .  A
O567        V570   1.902       .  S
O567        C572   1.265       .  A
O568        V570   1.903       .  S
O568        C571   1.265       .  A
V569        V570   2.087       .  T
C571        C813   1.493       .  S
C572       C1422   1.489       .  S
C573        C802   1.474       .  S
C574       C1173   1.476       .  S
O575        V583   1.903       .  S
O575        C585   1.265       .  A
O576        V583   1.907       .  S
O576        C586   1.266       .  A
O577        V583   1.900       .  S
O577        C587   1.264       .  A
O578        V583   1.900       .  S
O578        C588   1.265       .  A
O579        V584   1.907       .  S
O579        C588   1.266       .  A
O580        V584   1.903       .  S
O580        C587   1.265       .  A
O581        V584   1.896       .  S
O581        C586   1.263       .  A
O582        V584   1.895       .  S
O582        C585   1.263       .  A
V583        V584   2.087       .  T
C585        C933   1.477       .  S
C586        C782   1.482       .  S
C587       C1322   1.479       .  S
C588        C822   1.485       .  S
O589        V597   1.899       .  S
O589        C599   1.264       .  A
O590        V597   1.899       .  S
O590        C600   1.264       .  A
O591        V597   1.902       .  S
O591        C601   1.266       .  A
O592        V597   1.902       .  S
O592        C602   1.264       .  A
O593        V598   1.901       .  S
O593        C602   1.265       .  A
O594        V598   1.908       .  S
O594        C601   1.265       .  A
O595        V598   1.910       .  S
O595        C600   1.267       .  A
O596        V598   1.909       .  S
O596        C599   1.267       .  A
V597        V598   2.086       .  T
C599        C773   1.485       .  S
C600        C842   1.485       .  S
C601       C1102   1.488       .  S
C602        C753   1.482       .  S
O603        V611   1.902       .  S
O603        C613   1.266       .  A
O604        V611   1.900       .  S
O604        C614   1.266       .  A
O605        V611   1.896       .  S
O605        C615   1.264       .  A
O606        V611   1.904       .  S
O606        C616   1.264       .  A
O607        V612   1.904       .  S
O607        C616   1.265       .  A
O608        V612   1.904       .  S
O608        C615   1.265       .  A
O609        V612   1.897       .  S
O609        C614   1.263       .  A
O610        V612   1.901       .  S
O610        C613   1.263       .  A
V611        V612   2.079       .  T
C613       C1253   1.501       .  S
C614        C793   1.486       .  S
C615        C762   1.477       .  S
C616       C1002   1.476       .  S
O617        V625   1.902       .  S
O617        C627   1.265       .  A
O618        V625   1.899       .  S
O618        C628   1.264       .  A
O619        V625   1.894       .  S
O619        C629   1.261       .  A
O620        V625   1.890       .  S
O620        C630   1.262       .  A
O621        V626   1.902       .  S
O621        C630   1.265       .  A
O622        V626   1.902       .  S
O622        C629   1.265       .  A
O623        V626   1.889       .  S
O623        C628   1.261       .  A
O624        V626   1.894       .  S
O624        C627   1.262       .  A
V625        V626   2.084       .  T
C627        C893   1.475       .  S
C628        C733   1.468       .  S
C629       C1342   1.506       .  S
C630        C713   1.477       .  S
O631        V639   1.893       .  S
O631        C641   1.262       .  A
O632        V639   1.896       .  S
O632        C642   1.262       .  A
O633        V639   1.911       .  S
O633        C643   1.267       .  A
O634        V639   1.904       .  S
O634        C644   1.266       .  A
O635        V640   1.907       .  S
O635        C644   1.265       .  A
O636        V640   1.901       .  S
O636        C643   1.263       .  A
O637        V640   1.908       .  S
O637        C642   1.267       .  A
O638        V640   1.897       .  S
O638        C641   1.264       .  A
V639        V640   2.083       .  T
C641        C742   1.482       .  S
C642        C853   1.499       .  S
C643       C1053   1.480       .  S
C644        C702   1.500       .  S
O645        V653   1.902       .  S
O645        C655   1.265       .  A
O646        V653   1.904       .  S
O646        C656   1.266       .  A
O647        V653   1.897       .  S
O647        C657   1.263       .  A
O648        V653   1.895       .  S
O648        C658   1.263       .  A
O649        V654   1.911       .  S
O649        C658   1.267       .  A
O650        V654   1.912       .  S
O650        C657   1.267       .  A
O651        V654   1.900       .  S
O651        C656   1.264       .  A
O652        V654   1.898       .  S
O652        C655   1.263       .  A
V653        V654   2.087       .  T
C655       C1222   1.483       .  S
C656        C673   1.482       .  S
C657        C693   1.484       .  S
C658       C1022   1.482       .  S
O659        V667   1.905       .  S
O659        C669   1.266       .  A
O660        V667   1.906       .  S
O660        C670   1.266       .  A
O661        V667   1.900       .  S
O661        C671   1.264       .  A
O662        V667   1.906       .  S
O662        C672   1.265       .  A
O663        V668   1.906       .  S
O663        C672   1.266       .  A
O664        V668   1.906       .  S
O664        C671   1.266       .  A
O665        V668   1.894       .  S
O665        C670   1.263       .  A
O666        V668   1.896       .  S
O666        C669   1.263       .  A
V667        V668   2.085       .  T
C669        C722   1.481       .  S
C670       C1382   1.490       .  S
C671        C682   1.484       .  S
C672       C1162   1.483       .  S
C673        C674   1.413       .  A
C673        C678   1.413       .  A
C674        C675   1.409       .  A
C674       Br686   1.932       .  S
C675        C676   1.410       .  A
C675       Br690   1.931       .  S
C676        C679   1.489       .  S
C676        C677   1.409       .  A
C677        C678   1.409       .  A
C677       Br685   1.929       .  S
C678       Br689   1.931       .  S
C679        C680   1.408       .  A
C679        C684   1.409       .  A
C680        C681   1.409       .  A
C680       Br691   1.930       .  S
C681        C682   1.415       .  A
C681       Br687   1.932       .  S
C682        C683   1.412       .  A
C683        C684   1.409       .  A
C683       Br692   1.930       .  S
C684       Br688   1.929       .  S
C693        C694   1.413       .  A
C693        C698   1.413       .  A
C694        C695   1.412       .  A
C694       Br706   1.929       .  S
C695        C696   1.410       .  A
C695       Br710   1.930       .  S
C696        C699   1.491       .  S
C696        C697   1.408       .  A
C697        C698   1.408       .  A
C697       Br705   1.929       .  S
C698       Br709   1.932       .  S
C699        C700   1.406       .  A
C699        C704   1.407       .  A
C700        C701   1.411       .  A
C700       Br711   1.931       .  S
C701        C702   1.421       .  A
C701       Br707   1.933       .  S
C702        C703   1.421       .  A
C703        C704   1.411       .  A
C703       Br712   1.930       .  S
C704       Br708   1.932       .  S
C713        C714   1.413       .  A
C713        C718   1.414       .  A
C714        C715   1.405       .  A
C714       Br726   1.933       .  S
C715        C716   1.408       .  A
C715       Br730   1.931       .  S
C716        C719   1.483       .  S
C716        C717   1.409       .  A
C717        C718   1.408       .  A
C717       Br725   1.930       .  S
C718       Br729   1.933       .  S
C719        C720   1.408       .  A
C719        C724   1.407       .  A
C720        C721   1.409       .  A
C720       Br731   1.931       .  S
C721        C722   1.414       .  A
C721       Br727   1.930       .  S
C722        C723   1.414       .  A
C723        C724   1.406       .  A
C723       Br732   1.932       .  S
C724       Br728   1.932       .  S
C733        C734   1.410       .  A
C733        C738   1.409       .  A
C734        C735   1.405       .  A
C734       Br746   1.931       .  S
C735        C736   1.408       .  A
C735       Br750   1.930       .  S
C736        C739   1.477       .  S
C736        C737   1.408       .  A
C737        C738   1.403       .  A
C737       Br745   1.930       .  S
C738       Br749   1.932       .  S
C739        C740   1.405       .  A
C739        C744   1.405       .  A
C740        C741   1.405       .  A
C740       Br751   1.933       .  S
C741        C742   1.418       .  A
C741       Br747   1.934       .  S
C742        C743   1.417       .  A
C743        C744   1.406       .  A
C743       Br752   1.933       .  S
C744       Br748   1.931       .  S
C753        C754   1.413       .  A
C753        C758   1.413       .  A
C754        C755   1.409       .  A
C754       Br766   1.931       .  S
C755        C756   1.409       .  A
C755       Br770   1.931       .  S
C756        C759   1.486       .  S
C756        C757   1.409       .  A
C757        C758   1.408       .  A
C757       Br765   1.930       .  S
C758       Br769   1.932       .  S
C759        C760   1.409       .  A
C759        C764   1.411       .  A
C760        C761   1.406       .  A
C760       Br771   1.929       .  S
C761        C762   1.410       .  A
C761       Br767   1.932       .  S
C762        C763   1.412       .  A
C763        C764   1.410       .  A
C763       Br772   1.931       .  S
C764       Br768   1.930       .  S
C773        C774   1.414       .  A
C773        C778   1.415       .  A
C774        C775   1.411       .  A
C774       Br786   1.930       .  S
C775        C776   1.409       .  A
C775       Br790   1.930       .  S
C776        C779   1.489       .  S
C776        C777   1.408       .  A
C777        C778   1.408       .  A
C777       Br785   1.931       .  S
C778       Br789   1.931       .  S
C779        C780   1.409       .  A
C779        C784   1.409       .  A
C780        C781   1.410       .  A
C780       Br791   1.929       .  S
C781        C782   1.413       .  A
C781       Br787   1.930       .  S
C782        C783   1.414       .  A
C783        C784   1.408       .  A
C783       Br792   1.933       .  S
C784       Br788   1.930       .  S
C793        C794   1.418       .  A
C793        C798   1.418       .  A
C794        C795   1.407       .  A
C794       Br806   1.934       .  S
C795        C796   1.406       .  A
C795       Br810   1.932       .  S
C796        C799   1.480       .  S
C796        C797   1.405       .  A
C797        C798   1.407       .  A
C797       Br805   1.931       .  S
C798       Br809   1.932       .  S
C799        C800   1.408       .  A
C799        C804   1.408       .  A
C800        C801   1.407       .  A
C800       Br811   1.929       .  S
C801        C802   1.412       .  A
C801       Br807   1.931       .  S
C802        C803   1.411       .  A
C803        C804   1.404       .  A
C803       Br812   1.931       .  S
C804       Br808   1.931       .  S
C813        C814   1.417       .  A
C813        C818   1.416       .  A
C814        C815   1.411       .  A
C814       Br826   1.932       .  S
C815        C816   1.409       .  A
C815       Br830   1.932       .  S
C816        C819   1.494       .  S
C816        C817   1.410       .  A
C817        C818   1.413       .  A
C817       Br825   1.930       .  S
C818       Br829   1.931       .  S
C819        C820   1.410       .  A
C819        C824   1.412       .  A
C820        C821   1.409       .  A
C820       Br831   1.930       .  S
C821        C822   1.412       .  A
C821       Br827   1.931       .  S
C822        C823   1.414       .  A
C823        C824   1.412       .  A
C823       Br832   1.932       .  S
C824       Br828   1.929       .  S
C833        C834   1.411       .  A
C833        C838   1.414       .  A
C834        C835   1.410       .  A
C834       Br846   1.930       .  S
C835        C836   1.410       .  A
C835       Br850   1.929       .  S
C836        C839   1.491       .  S
C836        C837   1.409       .  A
C837        C838   1.410       .  A
C837       Br845   1.929       .  S
C838       Br849   1.932       .  S
C839        C840   1.409       .  A
C839        C844   1.410       .  A
C840        C841   1.409       .  A
C840       Br851   1.929       .  S
C841        C842   1.413       .  A
C841       Br847   1.931       .  S
C842        C843   1.413       .  A
C843        C844   1.412       .  A
C843       Br852   1.931       .  S
C844       Br848   1.930       .  S
C853        C854   1.425       .  A
C853        C858   1.421       .  A
C854        C855   1.409       .  A
C854       Br866   1.935       .  S
C855        C856   1.405       .  A
C855       Br870   1.933       .  S
C856        C859   1.487       .  S
C856        C857   1.405       .  A
C857        C858   1.410       .  A
C857       Br865   1.932       .  S
C858       Br869   1.930       .  S
C859        C860   1.407       .  A
C859        C864   1.407       .  A
C860        C861   1.410       .  A
C860       Br871   1.931       .  S
C861        C862   1.418       .  A
C861       Br867   1.931       .  S
C862        C863   1.416       .  A
C863        C864   1.408       .  A
C863       Br872   1.933       .  S
C864       Br868   1.931       .  S
C873        C874   1.418       .  A
C873        C878   1.418       .  A
C874        C875   1.412       .  A
C874       Br886   1.933       .  S
C875        C876   1.408       .  A
C875       Br890   1.930       .  S
C876        C879   1.493   1_556  S
C876        C877   1.408       .  A
C877        C878   1.411       .  A
C877       Br885   1.931       .  S
C878       Br889   1.931       .  S
C879        C880   1.409       .  A
C879        C884   1.410       .  A
C880        C881   1.410       .  A
C880       Br891   1.930       .  S
C881        C882   1.414       .  A
C881       Br887   1.932       .  S
C882        C883   1.414       .  A
C883        C884   1.412       .  A
C883       Br892   1.930       .  S
C884       Br888   1.929       .  S
C893        C894   1.411       .  A
C893        C898   1.411       .  A
C894        C895   1.408       .  A
C894       Br906   1.931       .  S
C895        C896   1.409       .  A
C895       Br910   1.928       .  S
C896        C899   1.484       .  S
C896        C897   1.409       .  A
C897        C898   1.406       .  A
C897       Br905   1.930       .  S
C898       Br909   1.932       .  S
C899        C900   1.406       .  A
C899        C904   1.407       .  A
C900        C901   1.408       .  A
C900       Br911   1.932       .  S
C901        C902   1.415       .  A
C901       Br907   1.923       .  S
C902        C903   1.416       .  A
C903        C904   1.409       .  A
C903       Br912   1.932       .  S
C904       Br908   1.930       .  S
C913        C914   1.412       .  A
C913        C918   1.411       .  A
C914        C915   1.409       .  A
C914       Br926   1.931       .  S
C915        C916   1.409       .  A
C915       Br930   1.929       .  S
C916        C919   1.488   1_655  S
C916        C917   1.410       .  A
C917        C918   1.408       .  A
C917       Br925   1.930       .  S
C918       Br929   1.931       .  S
C919        C920   1.406       .  A
C919        C924   1.406       .  A
C920        C921   1.410       .  A
C920       Br931   1.931       .  S
C921        C922   1.420       .  A
C921       Br927   1.934       .  S
C922        C923   1.421       .  A
C923        C924   1.410       .  A
C923       Br932   1.929       .  S
C924       Br928   1.933       .  S
C933        C934   1.411       .  A
C933        C938   1.413       .  A
C934        C935   1.408       .  A
C934       Br946   1.932       .  S
C935        C936   1.411       .  A
C935       Br950   1.930       .  S
C936        C939   1.486       .  S
C936        C937   1.408       .  A
C937        C938   1.407       .  A
C937       Br945   1.930       .  S
C938       Br949   1.932       .  S
C939        C940   1.407       .  A
C939        C944   1.409       .  A
C940        C941   1.408       .  A
C940       Br951   1.931       .  S
C941        C942   1.415       .  A
C941       Br947   1.932       .  S
C942        C943   1.415       .  A
C943        C944   1.409       .  A
C943       Br952   1.931       .  S
C944       Br948   1.932       .  S
C953        C954   1.415       .  A
C953        C958   1.413       .  A
C954        C955   1.411       .  A
C954       Br966   1.931       .  S
C955        C956   1.410       .  A
C955       Br970   1.930       .  S
C956        C959   1.490   1_655  S
C956        C957   1.409       .  A
C957        C958   1.409       .  A
C957       Br965   1.931       .  S
C958       Br969   1.930       .  S
C959        C960   1.409       .  A
C959        C964   1.409       .  A
C960        C961   1.410       .  A
C960       Br971   1.929       .  S
C961        C962   1.416       .  A
C961       Br967   1.932       .  S
C962        C963   1.415       .  A
C963        C964   1.409       .  A
C963       Br972   1.932       .  S
C964       Br968   1.931       .  S
C973        C974   1.413       .  A
C973        C978   1.414       .  A
C974        C975   1.411       .  A
C974       Br986   1.930       .  S
C975        C976   1.410       .  A
C975       Br990   1.930       .  S
C976        C979   1.495   1_554  S
C976        C977   1.411       .  A
C977        C978   1.412       .  A
C977       Br985   1.930       .  S
C978       Br989   1.931       .  S
C979        C980   1.408       .  A
C979        C984   1.407       .  A
C980        C981   1.413       .  A
C980       Br991   1.931       .  S
C981        C982   1.422       .  A
C981       Br987   1.934       .  S
C982        C983   1.423       .  A
C983        C984   1.412       .  A
C983       Br992   1.931       .  S
C984       Br988   1.932       .  S
C993        C994   1.411       .  A
C993        C998   1.410       .  A
C994        C995   1.408       .  A
C994      Br1006   1.929       .  S
C995        C996   1.409       .  A
C995      Br1010   1.930       .  S
C996        C999   1.489       .  S
C996        C997   1.411       .  A
C997        C998   1.410       .  A
C997      Br1005   1.929       .  S
C998      Br1009   1.929       .  S
C999       C1000   1.410       .  A
C999       C1004   1.411       .  A
C1000      C1001   1.409       .  A
C1000     Br1011   1.929       .  S
C1001      C1002   1.409       .  A
C1001     Br1007   1.929       .  S
C1002      C1003   1.408       .  A
C1003      C1004   1.409       .  A
C1003     Br1012   1.927       .  S
C1004     Br1008   1.929       .  S
C1013      C1014   1.415       .  A
C1013      C1018   1.415       .  A
C1014      C1015   1.410       .  A
C1014     Br1026   1.931       .  S
C1015      C1016   1.409       .  A
C1015     Br1030   1.930       .  S
C1016      C1019   1.491       .  S
C1016      C1017   1.409       .  A
C1017      C1018   1.411       .  A
C1017     Br1025   1.930       .  S
C1018     Br1029   1.930       .  S
C1019      C1020   1.411       .  A
C1019      C1024   1.409       .  A
C1020      C1021   1.411       .  A
C1020     Br1031   1.929       .  S
C1021      C1022   1.411       .  A
C1021     Br1027   1.930       .  S
C1022      C1023   1.414       .  A
C1023      C1024   1.409       .  A
C1023     Br1032   1.932       .  S
C1024     Br1028   1.929       .  S
C1033      C1034   1.415       .  A
C1033      C1038   1.414       .  A
C1034      C1035   1.410       .  A
C1034     Br1046   1.931       .  S
C1035      C1036   1.408       .  A
C1035     Br1050   1.929       .  S
C1036      C1039   1.493   1_556  S
C1036      C1037   1.411       .  A
C1037      C1038   1.412       .  A
C1037     Br1045   1.930       .  S
C1038     Br1049   1.931       .  S
C1039      C1040   1.409       .  A
C1039      C1044   1.408       .  A
C1040      C1041   1.412       .  A
C1040     Br1051   1.930   1_554  S
C1041      C1042   1.418       .  A
C1041     Br1047   1.933       .  S
C1042      C1043   1.416       .  A
C1043      C1044   1.411       .  A
C1043     Br1052   1.931       .  S
C1044     Br1048   1.930   1_554  S
C1053      C1054   1.408       .  A
C1053      C1058   1.412       .  A
C1054      C1055   1.407       .  A
C1054     Br1066   1.923       .  S
C1055      C1056   1.409       .  A
C1055     Br1070   1.930       .  S
C1056      C1059   1.486       .  S
C1056      C1057   1.409       .  A
C1057      C1058   1.410       .  A
C1057     Br1065   1.930       .  S
C1058     Br1069   1.927       .  S
C1059      C1060   1.409       .  A
C1059      C1064   1.410       .  A
C1060      C1061   1.407       .  A
C1060     Br1071   1.929       .  S
C1061      C1062   1.410       .  A
C1061     Br1067   1.926       .  S
C1062      C1063   1.410       .  A
C1063      C1064   1.408       .  A
C1063     Br1072   1.930       .  S
C1064     Br1068   1.930       .  S
C1073      C1074   1.417       .  A
C1073      C1078   1.414       .  A
C1074      C1075   1.409       .  A
C1074     Br1086   1.933       .  S
C1075      C1076   1.408       .  A
C1075     Br1090   1.930       .  S
C1076      C1079   1.490   1_565  S
C1076      C1077   1.410       .  A
C1077      C1078   1.411       .  A
C1077     Br1085   1.930       .  S
C1078     Br1089   1.931       .  S
C1079      C1080   1.409       .  A
C1079      C1084   1.408       .  A
C1080      C1081   1.411       .  A
C1080     Br1091   1.930       .  S
C1081      C1082   1.416       .  A
C1081     Br1087   1.932       .  S
C1082      C1083   1.415       .  A
C1083      C1084   1.410       .  A
C1083     Br1092   1.930       .  S
C1084     Br1088   1.930       .  S
C1093      C1094   1.416       .  A
C1093      C1098   1.417       .  A
C1094      C1095   1.411       .  A
C1094     Br1106   1.931       .  S
C1095      C1096   1.409       .  A
C1095     Br1110   1.930       .  S
C1096      C1099   1.493       .  S
C1096      C1097   1.409       .  A
C1097      C1098   1.412       .  A
C1097     Br1105   1.930       .  S
C1098     Br1109   1.932       .  S
C1099      C1100   1.411       .  A
C1099      C1104   1.408       .  A
C1100      C1101   1.414       .  A
C1100     Br1111   1.929       .  S
C1101      C1102   1.415       .  A
C1101     Br1107   1.930       .  S
C1102      C1103   1.414       .  A
C1103      C1104   1.408       .  A
C1103     Br1112   1.932       .  S
C1104     Br1108   1.930       .  S
C1113      C1114   1.429       .  A
C1113      C1118   1.430       .  A
C1114      C1115   1.414       .  A
C1114     Br1126   1.935       .  S
C1115      C1116   1.405       .  A
C1115     Br1130   1.934       .  S
C1116      C1119   1.492   1_565  S
C1116      C1117   1.404       .  A
C1117      C1118   1.411       .  A
C1117     Br1125   1.935       .  S
C1118     Br1129   1.935       .  S
C1119      C1120   1.411       .  A
C1119      C1124   1.411       .  A
C1120      C1121   1.409       .  A
C1120     Br1131   1.928       .  S
C1121      C1122   1.409       .  A
C1121     Br1127   1.930       .  S
C1122      C1123   1.412       .  A
C1123      C1124   1.409       .  A
C1123     Br1132   1.931       .  S
C1124     Br1128   1.930       .  S
C1133      C1134   1.409       .  A
C1133      C1138   1.412       .  A
C1134      C1135   1.407       .  A
C1134     Br1146   1.929       .  S
C1135      C1136   1.410       .  A
C1135     Br1150   1.929       .  S
C1136      C1139   1.489   1_554  S
C1136      C1137   1.410       .  A
C1137      C1138   1.409       .  A
C1137     Br1145   1.930       .  S
C1138     Br1149   1.929       .  S
C1139      C1140   1.404       .  A
C1139      C1144   1.404       .  A
C1140      C1141   1.411       .  A
C1140     Br1151   1.935       .  S
C1141      C1142   1.430       .  A
C1141     Br1147   1.935       .  S
C1142      C1143   1.428       .  A
C1143      C1144   1.411       .  A
C1143     Br1152   1.936       .  S
C1144     Br1148   1.935       .  S
C1153      C1154   1.413       .  A
C1153      C1158   1.413       .  A
C1154      C1155   1.410       .  A
C1154     Br1166   1.932       .  S
C1155      C1156   1.410       .  A
C1155     Br1170   1.929       .  S
C1156      C1159   1.492       .  S
C1156      C1157   1.410       .  A
C1157      C1158   1.411       .  A
C1157     Br1165   1.930       .  S
C1158     Br1169   1.926       .  S
C1159      C1160   1.410       .  A
C1159      C1164   1.410       .  A
C1160      C1161   1.411       .  A
C1160     Br1171   1.929       .  S
C1161      C1162   1.412       .  A
C1161     Br1167   1.929       .  S
C1162      C1163   1.411       .  A
C1163      C1164   1.410       .  A
C1163     Br1172   1.930       .  S
C1164     Br1168   1.929       .  S
C1173      C1174   1.410       .  A
C1173      C1178   1.409       .  A
C1174      C1175   1.410       .  A
C1174     Br1186   1.931       .  S
C1175      C1176   1.412       .  A
C1175     Br1190   1.928       .  S
C1176      C1179   1.490       .  S
C1176      C1177   1.411       .  A
C1177      C1178   1.408       .  A
C1177     Br1185   1.930       .  S
C1178     Br1189   1.929       .  S
C1179      C1180   1.411       .  A
C1179      C1184   1.410       .  A
C1180      C1181   1.410       .  A
C1180     Br1191   1.931       .  S
C1181      C1182   1.410       .  A
C1181     Br1187   1.923       .  S
C1182      C1183   1.409       .  A
C1183      C1184   1.409       .  A
C1183     Br1192   1.924       .  S
C1184     Br1188   1.928       .  S
C1193      C1194   1.417       .  A
C1193      C1198   1.420       .  A
C1194      C1195   1.409       .  A
C1194     Br1206   1.932       .  S
C1195      C1196   1.407       .  A
C1195     Br1210   1.931       .  S
C1196      C1199   1.489   1_554  S
C1196      C1197   1.408       .  A
C1197      C1198   1.411       .  A
C1197     Br1205   1.931       .  S
C1198     Br1209   1.934       .  S
C1199      C1200   1.408       .  A
C1199      C1204   1.410       .  A
C1200      C1201   1.407       .  A
C1200     Br1211   1.930       .  S
C1201      C1202   1.414       .  A
C1201     Br1207   1.933       .  S
C1202      C1203   1.414       .  A
C1203      C1204   1.411       .  A
C1203     Br1212   1.930       .  S
C1204     Br1208   1.930       .  S
C1213      C1214   1.417       .  A
C1213      C1218   1.415       .  A
C1214      C1215   1.409       .  A
C1214     Br1226   1.923       .  S
C1215      C1216   1.407       .  A
C1215     Br1230   1.933       .  S
C1216      C1219   1.485       .  S
C1216      C1217   1.407       .  A
C1217      C1218   1.408       .  A
C1217     Br1225   1.929       .  S
C1218     Br1229   1.934       .  S
C1219      C1220   1.409       .  A
C1219      C1224   1.407       .  A
C1220      C1221   1.409       .  A
C1220     Br1231   1.930       .  S
C1221      C1222   1.414       .  A
C1221     Br1227   1.932       .  S
C1222      C1223   1.416       .  A
C1223      C1224   1.407       .  A
C1223     Br1232   1.932       .  S
C1224     Br1228   1.932       .  S
C1233      C1234   1.416       .  A
C1233      C1238   1.415       .  A
C1234      C1235   1.410       .  A
C1234     Br1246   1.932       .  S
C1235      C1236   1.408       .  A
C1235     Br1250   1.930       .  S
C1236      C1239   1.487   1_455  S
C1236      C1237   1.406       .  A
C1237      C1238   1.408       .  A
C1237     Br1245   1.931       .  S
C1238     Br1249   1.925       .  S
C1239      C1240   1.406       .  A
C1239      C1244   1.407       .  A
C1240      C1241   1.409       .  A
C1240     Br1251   1.930       .  S
C1241      C1242   1.419       .  A
C1241     Br1247   1.933       .  S
C1242      C1243   1.415       .  A
C1243      C1244   1.409       .  A
C1243     Br1252   1.924       .  S
C1244     Br1248   1.931       .  S
C1253      C1254   1.424       .  A
C1253      C1258   1.424       .  A
C1254      C1255   1.411       .  A
C1254     Br1266   1.936       .  S
C1255      C1256   1.406       .  A
C1255     Br1270   1.932       .  S
C1256      C1259   1.491       .  S
C1256      C1257   1.405       .  A
C1257      C1258   1.409       .  A
C1257     Br1265   1.933       .  S
C1258     Br1269   1.935       .  S
C1259      C1260   1.404       .  A
C1259      C1264   1.404       .  A
C1260      C1261   1.412       .  A
C1260     Br1271   1.934       .  S
C1261      C1262   1.430       .  A
C1261     Br1267   1.935       .  S
C1262      C1263   1.429       .  A
C1263      C1264   1.412       .  A
C1263     Br1272   1.935       .  S
C1264     Br1268   1.935       .  S
C1273      C1274   1.410       .  A
C1273      C1278   1.411       .  A
C1274      C1275   1.409       .  A
C1274     Br1286   1.931       .  S
C1275      C1276   1.410       .  A
C1275     Br1290   1.929       .  S
C1276      C1279   1.491   1_655  S
C1276      C1277   1.411       .  A
C1277      C1278   1.410       .  A
C1277     Br1285   1.930       .  S
C1278     Br1289   1.930       .  S
C1279      C1280   1.409       .  A
C1279      C1284   1.408       .  A
C1280      C1281   1.411       .  A
C1280     Br1291   1.930       .  S
C1281      C1282   1.417       .  A
C1281     Br1287   1.932       .  S
C1282      C1283   1.417       .  A
C1283      C1284   1.410       .  A
C1283     Br1292   1.932       .  S
C1284     Br1288   1.931       .  S
C1293      C1294   1.416       .  A
C1293      C1298   1.414       .  A
C1294      C1295   1.411       .  A
C1294     Br1306   1.932       .  S
C1295      C1296   1.409       .  A
C1295     Br1310   1.929       .  S
C1296      C1299   1.491   1_554  S
C1296      C1297   1.409       .  A
C1297      C1298   1.409       .  A
C1297     Br1305   1.930   1_554  S
C1298     Br1309   1.929       .  S
C1299      C1300   1.409       .  A
C1299      C1304   1.409       .  A
C1300      C1301   1.411       .  A
C1300     Br1311   1.929       .  S
C1301      C1302   1.415       .  A
C1301     Br1307   1.931       .  S
C1302      C1303   1.414       .  A
C1303      C1304   1.410       .  A
C1303     Br1312   1.931       .  S
C1304     Br1308   1.930       .  S
C1313      C1314   1.412       .  A
C1313      C1318   1.410       .  A
C1314      C1315   1.409       .  A
C1314     Br1326   1.930       .  S
C1315      C1316   1.409       .  A
C1315     Br1330   1.931       .  S
C1316      C1319   1.486       .  S
C1316      C1317   1.409       .  A
C1317      C1318   1.408       .  A
C1317     Br1325   1.929       .  S
C1318     Br1329   1.929       .  S
C1319      C1320   1.408       .  A
C1319      C1324   1.410       .  A
C1320      C1321   1.408       .  A
C1320     Br1331   1.930       .  S
C1321      C1322   1.414       .  A
C1321     Br1327   1.931       .  S
C1322      C1323   1.411       .  A
C1323      C1324   1.408       .  A
C1323     Br1332   1.931       .  S
C1324     Br1328   1.930       .  S
C1333      C1334   1.425       .  A
C1333      C1338   1.427       .  A
C1334      C1335   1.410       .  A
C1334     Br1346   1.933       .  S
C1335      C1336   1.404       .  A
C1335     Br1350   1.934       .  S
C1336      C1339   1.485       .  S
C1336      C1337   1.404       .  A
C1337      C1338   1.408       .  A
C1337     Br1345   1.935       .  S
C1338     Br1349   1.938       .  S
C1339      C1340   1.402       .  A
C1339      C1344   1.404       .  A
C1340      C1341   1.408       .  A
C1340     Br1351   1.935       .  S
C1341      C1342   1.430       .  A
C1341     Br1347   1.938       .  S
C1342      C1343   1.429       .  A
C1343      C1344   1.410       .  A
C1343     Br1352   1.937       .  S
C1344     Br1348   1.935       .  S
C1353      C1354   1.410       .  A
C1353      C1358   1.410       .  A
C1354      C1355   1.405       .  A
C1354     Br1366   1.931       .  S
C1355      C1356   1.409       .  A
C1355     Br1370   1.931   1_556  S
C1356      C1359   1.483   1_556  S
C1356      C1357   1.410       .  A
C1357      C1358   1.408       .  A
C1357     Br1365   1.929   1_556  S
C1358     Br1369   1.930       .  S
C1359      C1360   1.409       .  A
C1359      C1364   1.407       .  A
C1360      C1361   1.408       .  A
C1360     Br1371   1.931       .  S
C1361      C1362   1.414       .  A
C1361     Br1367   1.932       .  S
C1362      C1363   1.414       .  A
C1363      C1364   1.405       .  A
C1363     Br1372   1.932       .  S
C1364     Br1368   1.930       .  S
C1373      C1374   1.426       .  A
C1373      C1378   1.424       .  A
C1374      C1375   1.410       .  A
C1374     Br1386   1.933       .  S
C1375      C1376   1.404       .  A
C1375     Br1390   1.934       .  S
C1376      C1379   1.487       .  S
C1376      C1377   1.405       .  A
C1377      C1378   1.411       .  A
C1377     Br1385   1.933       .  S
C1378     Br1389   1.931       .  S
C1379      C1380   1.407       .  A
C1379      C1384   1.407       .  A
C1380      C1381   1.410       .  A
C1380     Br1391   1.930       .  S
C1381      C1382   1.418       .  A
C1381     Br1387   1.931       .  S
C1382      C1383   1.419       .  A
C1383      C1384   1.407       .  A
C1383     Br1392   1.935       .  S
C1384     Br1388   1.932       .  S
C1393      C1394   1.414       .  A
C1393      C1398   1.413       .  A
C1394      C1395   1.408       .  A
C1394     Br1406   1.932       .  S
C1395      C1396   1.408       .  A
C1395     Br1410   1.930       .  S
C1396      C1399   1.484   1_545  S
C1396      C1397   1.408       .  A
C1397      C1398   1.407       .  A
C1397     Br1405   1.931       .  S
C1398     Br1409   1.931       .  S
C1399      C1400   1.408       .  A
C1399      C1404   1.407       .  A
C1400      C1401   1.408       .  A
C1400     Br1411   1.931       .  S
C1401      C1402   1.415       .  A
C1401     Br1407   1.933       .  S
C1402      C1403   1.414       .  A
C1403      C1404   1.407       .  A
C1403     Br1412   1.932       .  S
C1404     Br1408   1.929       .  S
C1413      C1414   1.413       .  A
C1413      C1418   1.413       .  A
C1414      C1415   1.410       .  A
C1414     Br1426   1.931       .  S
C1415      C1416   1.410       .  A
C1415     Br1430   1.929       .  S
C1416      C1419   1.490       .  S
C1416      C1417   1.409       .  A
C1417      C1418   1.409       .  A
C1417     Br1425   1.930       .  S
C1418     Br1429   1.931       .  S
C1419      C1420   1.408       .  A
C1419      C1424   1.408       .  A
C1420      C1421   1.411       .  A
C1420     Br1431   1.931       .  S
C1421      C1422   1.416       .  A
C1421     Br1427   1.931       .  S
C1422      C1423   1.415       .  A
C1423      C1424   1.410       .  A
C1423     Br1432   1.931       .  S
C1424     Br1428   1.930       .  S
C1433      C1434   1.413       .  A
C1433      C1438   1.414       .  A
C1434      C1435   1.410       .  A
C1434     Br1446   1.931       .  S
C1435      C1436   1.410       .  A
C1435     Br1450   1.929       .  S
C1436      C1439   1.491   1_545  S
C1436      C1437   1.409       .  A
C1437      C1438   1.410       .  A
C1437     Br1445   1.930       .  S
C1438     Br1449   1.930       .  S
C1439      C1440   1.410       .  A
C1439      C1444   1.408       .  A
C1440      C1441   1.411       .  A
C1440     Br1451   1.930       .  S
C1441      C1442   1.414       .  A
C1441     Br1447   1.932       .  S
C1442      C1443   1.415       .  A
C1443      C1444   1.410       .  A
C1443     Br1452   1.931       .  S
C1444     Br1448   1.930       .  S
C1453      C1454   1.414       .  A
C1453      C1458   1.412       .  A
C1454      C1455   1.409       .  A
C1454     Br1466   1.931       .  S
C1455      C1456   1.408       .  A
C1455     Br1470   1.929       .  S
C1456      C1459   1.488   1_556  S
C1456      C1457   1.408       .  A
C1457      C1458   1.409       .  A
C1457     Br1465   1.932       .  S
C1458     Br1469   1.921       .  S
C1459      C1460   1.408       .  A
C1459      C1464   1.409       .  A
C1460      C1461   1.409       .  A
C1460     Br1471   1.930       .  S
C1461      C1462   1.415       .  A
C1461     Br1467   1.933       .  S
C1462      C1463   1.414       .  A
C1463      C1464   1.409       .  A
C1463     Br1472   1.931       .  S
C1464     Br1468   1.930       .  S
C1473      C1474   1.415       .  A
C1473      C1478   1.414       .  A
C1474      C1475   1.409       .  A
C1474     Br1486   1.933       .  S
C1475      C1476   1.408       .  A
C1475     Br1490   1.928       .  S
C1476      C1479   1.488   1_545  S
C1476      C1477   1.407       .  A
C1477      C1478   1.408       .  A
C1477     Br1485   1.932       .  S
C1478     Br1489   1.921       .  S
C1479      C1480   1.407       .  A
C1479      C1484   1.408       .  A
C1480      C1481   1.409       .  A
C1480     Br1491   1.931       .  S
C1481      C1482   1.417       .  A
C1481     Br1487   1.931       .  S
C1482      C1483   1.417       .  A
C1483      C1484   1.411       .  A
C1483     Br1492   1.931       .  S
C1484     Br1488   1.931       .  S
C1493      C1494   1.414       .  A
C1493      C1498   1.411       .  A
C1494      C1495   1.410       .  A
C1494     Br1506   1.930       .  S
C1495      C1496   1.409       .  A
C1495     Br1510   1.930       .  S
C1496      C1499   1.486   1_455  S
C1496      C1497   1.408       .  A
C1497      C1498   1.407       .  A
C1497     Br1505   1.930       .  S
C1498     Br1509   1.926       .  S
C1499      C1500   1.405       .  A
C1499      C1504   1.406       .  A
C1500      C1501   1.410       .  A
C1500     Br1511   1.933       .  S
C1501      C1502   1.420       .  A
C1501     Br1507   1.925       .  S
C1502      C1503   1.420       .  A
C1503      C1504   1.410       .  A
C1503     Br1512   1.933       .  S
C1504     Br1508   1.932       .  S
C1513      C1514   1.415       .  A
C1513      C1518   1.416       .  A
C1514      C1515   1.408       .  A
C1514     Br1526   1.932       .  S
C1515      C1516   1.408       .  A
C1515     Br1530   1.931       .  S
C1516      C1519   1.488   1_455  S
C1516      C1517   1.409       .  A
C1517      C1518   1.410       .  A
C1517     Br1525   1.931       .  S
C1518     Br1529   1.933       .  S
C1519      C1520   1.411       .  A
C1519      C1524   1.408       .  A
C1520      C1521   1.410       .  A
C1520     Br1531   1.930       .  S
C1521      C1522   1.412       .  A
C1521     Br1527   1.929       .  S
C1522      C1523   1.413       .  A
C1523      C1524   1.408       .  A
C1523     Br1532   1.926       .  S
C1524     Br1528   1.931       .  S
C1533      C1534   1.411       .  A
C1533      C1538   1.411       .  A
C1534      C1535   1.410       .  A
C1534     Br1546   1.930       .  S
C1535      C1536   1.410       .  A
C1535     Br1550   1.930       .  S
C1536      C1539   1.491   1_565  S
C1536      C1537   1.411       .  A
C1537      C1538   1.409       .  A
C1537     Br1545   1.929       .  S
C1538     Br1549   1.931       .  S
C1539      C1540   1.405       .  A
C1539      C1544   1.405       .  A
C1540      C1541   1.412       .  A
C1540     Br1551   1.934       .  S
C1541      C1542   1.427       .  A
C1541     Br1547   1.935       .  S
C1542      C1543   1.428       .  A
C1543      C1544   1.412       .  A
C1543     Br1552   1.936       .  S
C1544     Br1548   1.934       .  S
C1553      C1554   1.414       .  A
C1553      C1558   1.413       .  A
C1554      C1555   1.411       .  A
C1554     Br1566   1.930       .  S
C1555      C1556   1.409       .  A
C1555     Br1570   1.930       .  S
C1556      C1559   1.489       .  S
C1556      C1557   1.409       .  A
C1557      C1558   1.408       .  A
C1557     Br1565   1.930       .  S
C1558     Br1569   1.931       .  S
C1559      C1560   1.410       .  A
C1559      C1564   1.406       .  A
C1560      C1561   1.411       .  A
C1560     Br1571   1.930       .  S
C1561      C1562   1.414       .  A
C1561     Br1567   1.931       .  S
C1562      C1563   1.415       .  A
C1563      C1564   1.408       .  A
C1563     Br1572   1.926       .  S
C1564     Br1568   1.931       .  S
C1573      C1574   1.414       .  A
C1573      C1578   1.416       .  A
C1574      C1575   1.410       .  A
C1574     Br1586   1.931       .  S
C1575      C1576   1.409       .  A
C1575     Br1590   1.930       .  S
C1576      C1579   1.486       .  S
C1576      C1577   1.406       .  A
C1577      C1578   1.407       .  A
C1577     Br1585   1.930       .  S
C1578     Br1589   1.933       .  S
C1579      C1580   1.406       .  A
C1579      C1584   1.408       .  A
C1580      C1581   1.408       .  A
C1580     Br1591   1.931       .  S
C1581      C1582   1.418       .  A
C1581     Br1587   1.933       .  S
C1582      C1583   1.418       .  A
C1583      C1584   1.410       .  A
C1583     Br1592   1.932       .  S
C1584     Br1588   1.931       .  S
C1593      C1594   1.412       .  A
C1593      C1598   1.410       .  A
C1594      C1595   1.410       .  A
C1594     Br1606   1.929       .  S
C1595      C1596   1.409       .  A
C1595     Br1610   1.929       .  S
C1596      C1599   1.488       .  S
C1596      C1597   1.410       .  A
C1597      C1598   1.409       .  A
C1597     Br1605   1.929       .  S
C1598     Br1609   1.927       .  S
C1599      C1600   1.409       .  A
C1599      C1604   1.409       .  A
C1600      C1601   1.409       .  A
C1600     Br1611   1.929       .  S
C1601      C1602   1.411       .  A
C1601     Br1607   1.929       .  S
C1602      C1603   1.412       .  A
C1603      C1604   1.409       .  A
C1603     Br1612   1.929       .  S
C1604     Br1608   1.930       .  S
C1613      C1614   1.424       .  A
C1613      C1618   1.427       .  A
C1614      C1615   1.410       .  A
C1614     Br1626   1.933       .  S
C1615      C1616   1.404       .  A
C1615     Br1630   1.932       .  S
C1616      C1619   1.490       .  S
C1616      C1617   1.406       .  A
C1617      C1618   1.412       .  A
C1617     Br1625   1.933       .  S
C1618     Br1629   1.937       .  S
C1619      C1620   1.409       .  A
C1619      C1624   1.409       .  A
C1620      C1621   1.411       .  A
C1620     Br1631   1.929       .  S
C1621      C1622   1.413       .  A
C1621     Br1627   1.930       .  S
C1622      C1623   1.411       .  A
C1623      C1624   1.409       .  A
C1623     Br1632   1.929       .  S
C1624     Br1628   1.930       .  S
C1633      C1634   1.418       .  A
C1633      C1638   1.421       .  A
C1634      C1635   1.409       .  A
C1634     Br1646   1.933       .  S
C1635      C1636   1.407       .  A
C1635     Br1650   1.931       .  S
C1636      C1639   1.490       .  S
C1636      C1637   1.407       .  A
C1637      C1638   1.411       .  A
C1637     Br1645   1.931       .  S
C1638     Br1649   1.934       .  S
C1639      C1640   1.408       .  A
C1639      C1644   1.408       .  A
C1640      C1641   1.411       .  A
C1640     Br1651   1.930       .  S
C1641      C1642   1.417       .  A
C1641     Br1647   1.930       .  S
C1642      C1643   1.418       .  A
C1643      C1644   1.410       .  A
C1643     Br1652   1.932       .  S
C1644     Br1648   1.931       .  S
C1653      C1654   1.410       .  A
C1653      C1658   1.410       .  A
C1654      C1655   1.410       .  A
C1654     Br1666   1.927       .  S
C1655      C1656   1.412       .  A
C1655     Br1670   1.931       .  S
C1656      C1659   1.492       .  S
C1656      C1657   1.411       .  A
C1657      C1658   1.410       .  A
C1657     Br1665   1.930       .  S
C1658     Br1669   1.927       .  S
C1659      C1660   1.412       .  A
C1659      C1664   1.413       .  A
C1660      C1661   1.408       .  A
C1660     Br1671   1.929       .  S
C1661      C1662   1.407       .  A
C1661     Br1667   1.929       .  S
C1662      C1663   1.408       .  A
C1663      C1664   1.410       .  A
C1663     Br1672   1.931       .  S
C1664     Br1668   1.928       .  S
C1673      C1674   1.418       .  A
C1673      C1678   1.418       .  A
C1674      C1675   1.408       .  A
C1674     Br1686   1.933       .  S
C1675      C1676   1.407       .  A
C1675     Br1690   1.931       .  S
C1676      C1679   1.488       .  S
C1676      C1677   1.407       .  A
C1677      C1678   1.410       .  A
C1677     Br1685   1.930       .  S
C1678     Br1689   1.932       .  S
C1679      C1680   1.410       .  A
C1679      C1684   1.410       .  A
C1680      C1681   1.409       .  A
C1680     Br1691   1.929       .  S
C1681      C1682   1.411       .  A
C1681     Br1687   1.930       .  S
C1682      C1683   1.411       .  A
C1683      C1684   1.408       .  A
C1683     Br1692   1.925       .  S
C1684     Br1688   1.931       .  S
C1693      C1694   1.413       .  A
C1693      C1698   1.413       .  A
C1694      C1695   1.411       .  A
C1694     Br1706   1.930       .  S
C1695      C1696   1.410       .  A
C1695     Br1710   1.929       .  S
C1696      C1699   1.490       .  S
C1696      C1697   1.409       .  A
C1697      C1698   1.408       .  A
C1697     Br1705   1.929       .  S
C1698     Br1709   1.933       .  S
C1699      C1700   1.408       .  A
C1699      C1704   1.408       .  A
C1700      C1701   1.411       .  A
C1700     Br1711   1.931       .  S
C1701      C1702   1.418       .  A
C1701     Br1707   1.932       .  S
C1702      C1703   1.416       .  A
C1703      C1704   1.410       .  A
C1703     Br1712   1.931       .  S
C1704     Br1708   1.930       .  S
C1713      C1714   1.415       .  A
C1713      C1718   1.415       .  A
C1714      C1715   1.409       .  A
C1714     Br1726   1.932       .  S
C1715      C1716   1.408       .  A
C1715     Br1730   1.930       .  S
C1716      C1719   1.486       .  S
C1716      C1717   1.407       .  A
C1717      C1718   1.407       .  A
C1717     Br1725   1.931       .  S
C1718     Br1729   1.932       .  S
C1719      C1720   1.408       .  A
C1719      C1724   1.408       .  A
C1720      C1721   1.410       .  A
C1720     Br1731   1.930       .  S
C1721      C1722   1.415       .  A
C1721     Br1727   1.930       .  S
C1722      C1723   1.412       .  A
C1723      C1724   1.407       .  A
C1723     Br1732   1.923       .  S
C1724     Br1728   1.932       .  S
C1733      C1734   1.425       .  A
C1733      C1738   1.426       .  A
C1734      C1735   1.414       .  A
C1734     Br1746   1.930       .  S
C1735      C1736   1.406       .  A
C1735     Br1750   1.933       .  S
C1736      C1739   1.495       .  S
C1736      C1737   1.405       .  A
C1737      C1738   1.413       .  A
C1737     Br1745   1.933       .  S
C1738     Br1749   1.934       .  S
C1739      C1740   1.410       .  A
C1739      C1744   1.412       .  A
C1740      C1741   1.409       .  A
C1740     Br1751   1.928       .  S
C1741      C1742   1.410       .  A
C1741     Br1747   1.929       .  S
C1742      C1743   1.410       .  A
C1743      C1744   1.412       .  A
C1743     Br1752   1.930       .  S
C1744     Br1748   1.928       .  S
C1753      C1754   1.417       .  A
C1753      C1758   1.415       .  A
C1754      C1755   1.410       .  A
C1754     Br1766   1.934       .  S
C1755      C1756   1.409       .  A
C1755     Br1770   1.930       .  S
C1756      C1759   1.493       .  S
C1756      C1757   1.409       .  A
C1757      C1758   1.410       .  A
C1757     Br1765   1.930       .  S
C1758     Br1769   1.932       .  S
C1759      C1760   1.407       .  A
C1759      C1764   1.405       .  A
C1760      C1761   1.414       .  A
C1760     Br1771   1.932       .  S
C1761      C1762   1.421       .  A
C1761     Br1767   1.923       .  S
C1762      C1763   1.421       .  A
C1763      C1764   1.410       .  A
C1763     Br1772   1.922       .  S
C1764     Br1768   1.934       .  S
C1773      C1774   1.412       .  A
C1773      C1778   1.412       .  A
C1774      C1775   1.403       .  A
C1774     Br1786   1.932       .  S
C1775      C1776   1.406       .  A
C1775     Br1790   1.931       .  S
C1776      C1779   1.476       .  S
C1776      C1777   1.407       .  A
C1777      C1778   1.406       .  A
C1777     Br1785   1.930       .  S
C1778     Br1789   1.931       .  S
C1779      C1780   1.406       .  A
C1779      C1784   1.404       .  A
C1780      C1781   1.407       .  A
C1780     Br1791   1.930       .  S
C1781      C1782   1.415       .  A
C1781     Br1787   1.930       .  S
C1782      C1783   1.412       .  A
C1783      C1784   1.403       .  A
C1783     Br1792   1.915       .  S
C1784     Br1788   1.934       .  S
C1793      C1794   1.421       .  A
C1793      C1798   1.429       .  A
C1794      C1795   1.407       .  A
C1794     Br1806   1.933       .  S
C1795      C1796   1.405       .  A
C1795     Br1810   1.932       .  S
C1796      C1799   1.485       .  S
C1796      C1797   1.404       .  A
C1797      C1798   1.409       .  A
C1797     Br1805   1.935       .  S
C1798     Br1809   1.940       .  S
C1799      C1800   1.406       .  A
C1799      C1804   1.405       .  A
C1800      C1801   1.411       .  A
C1800     Br1811   1.932       .  S
C1801      C1802   1.421       .  A
C1801     Br1807   1.932       .  S
C1802      C1803   1.422       .  A
C1803      C1804   1.407       .  A
C1803     Br1812   1.934       .  S
C1804     Br1808   1.935       .  S
C1813      C1814   1.415       .  A
C1813      C1818   1.414       .  A
C1814      C1815   1.406       .  A
C1814     Br1826   1.932       .  S
C1815      C1816   1.407       .  A
C1815     Br1830   1.933       .  S
C1816      C1819   1.481       .  S
C1816      C1817   1.407       .  A
C1817      C1818   1.407       .  A
C1817     Br1825   1.930       .  S
C1818     Br1829   1.931       .  S
C1819      C1820   1.406       .  A
C1819      C1824   1.410       .  A
C1820      C1821   1.404       .  A
C1820     Br1831   1.930       .  S
C1821      C1822   1.413       .  A
C1821     Br1827   1.933       .  S
C1822      C1823   1.410       .  A
C1823      C1824   1.407       .  A
C1823     Br1832   1.931       .  S
C1824     Br1828   1.931       .  S
C1833      C1834   1.415       .  A
C1833      C1838   1.417       .  A
C1834      C1835   1.407       .  A
C1834     Br1846   1.933       .  S
C1835      C1836   1.409       .  A
C1835     Br1850   1.931       .  S
C1836      C1839   1.491       .  S
C1836      C1837   1.410       .  A
C1837      C1838   1.410       .  A
C1837     Br1845   1.932       .  S
C1838     Br1849   1.933       .  S
C1839      C1840   1.406       .  A
C1839      C1844   1.405       .  A
C1840      C1841   1.411       .  A
C1840     Br1851   1.935       .  S
C1841      C1842   1.429       .  A
C1841     Br1847   1.937       .  S
C1842      C1843   1.429       .  A
C1843      C1844   1.411       .  A
C1843     Br1852   1.936       .  S
C1844     Br1848   1.935       .  S
C1853      C1854   1.410       .  A
C1853      C1858   1.411       .  A
C1854      C1855   1.408       .  A
C1854     Br1866   1.930       .  S
C1855      C1856   1.410       .  A
C1855     Br1870   1.929       .  S
C1856      C1859   1.489       .  S
C1856      C1857   1.411       .  A
C1857      C1858   1.409       .  A
C1857     Br1865   1.930       .  S
C1858     Br1869   1.932       .  S
C1859      C1860   1.409       .  A
C1859      C1864   1.409       .  A
C1860      C1861   1.409       .  A
C1860     Br1871   1.931       .  S
C1861      C1862   1.414       .  A
C1861     Br1867   1.931       .  S
C1862      C1863   1.414       .  A
C1863      C1864   1.410       .  A
C1863     Br1872   1.931       .  S
C1864     Br1868   1.930       .  S
C1873      C1874   1.409       .  A
C1873      C1878   1.410       .  A
C1874      C1875   1.407       .  A
C1874     Br1886   1.932       .  S
C1875      C1876   1.410       .  A
C1875     Br1890   1.928       .  S
C1876      C1879   1.486       .  S
C1876      C1877   1.410       .  A
C1877      C1878   1.408       .  A
C1877     Br1885   1.929       .  S
C1878     Br1889   1.931       .  S
C1879      C1880   1.408       .  A
C1879      C1884   1.406       .  A
C1880      C1881   1.411       .  A
C1880     Br1891   1.931       .  S
C1881      C1882   1.418       .  A
C1881     Br1887   1.931       .  S
C1882      C1883   1.419       .  A
C1883      C1884   1.408       .  A
C1883     Br1892   1.933       .  S
C1884     Br1888   1.932       .  S
C1893      C1894   1.411       .  A
C1893      C1898   1.413       .  A
C1894      C1895   1.410       .  A
C1894     Br1906   1.930       .  S
C1895      C1896   1.412       .  A
C1895     Br1910   1.930       .  S
C1896      C1899   1.490       .  S
C1896      C1897   1.409       .  A
C1897      C1898   1.408       .  A
C1897     Br1905   1.930       .  S
C1898     Br1909   1.931       .  S
C1899      C1900   1.408       .  A
C1899      C1904   1.411       .  A
C1900      C1901   1.408       .  A
C1900     Br1911   1.931       .  S
C1901      C1902   1.417       .  A
C1901     Br1907   1.933       .  S
C1902      C1903   1.414       .  A
C1903      C1904   1.411       .  A
C1903     Br1912   1.931       .  S
C1904     Br1908   1.931       .  S
C1913      C1914   1.414       .  A
C1913      C1918   1.415       .  A
C1914      C1915   1.409       .  A
C1914     Br1926   1.932       .  S
C1915      C1916   1.409       .  A
C1915     Br1930   1.929       .  S
C1916      C1919   1.492       .  S
C1916      C1917   1.410       .  A
C1917      C1918   1.411       .  A
C1917     Br1925   1.930       .  S
C1918     Br1929   1.931       .  S
C1919      C1920   1.407       .  A
C1919      C1924   1.408       .  A
C1920      C1921   1.412       .  A
C1920     Br1931   1.931       .  S
C1921      C1922   1.419       .  A
C1921     Br1927   1.932       .  S
C1922      C1923   1.419       .  A
C1923      C1924   1.411       .  A
C1923     Br1932   1.929       .  S
C1924     Br1928   1.932       .  S
C1933      C1934   1.418       .  A
C1933      C1938   1.419       .  A
C1934      C1935   1.408       .  A
C1934     Br1946   1.933       .  S
C1935      C1936   1.406       .  A
C1935     Br1950   1.931       .  S
C1936      C1939   1.487       .  S
C1936      C1937   1.407       .  A
C1937      C1938   1.410       .  A
C1937     Br1945   1.931       .  S
C1938     Br1949   1.932       .  S
C1939      C1940   1.410       .  A
C1939      C1944   1.410       .  A
C1940      C1941   1.408       .  A
C1940     Br1951   1.929       .  S
C1941      C1942   1.409       .  A
C1941     Br1947   1.930       .  S
C1942      C1943   1.410       .  A
C1943      C1944   1.409       .  A
C1943     Br1952   1.930       .  S
C1944     Br1948   1.929       .  S
C1953      C1954   1.423       .  A
C1953      C1958   1.421       .  A
C1954      C1955   1.410       .  A
C1954     Br1966   1.930       .  S
C1955      C1956   1.406       .  A
C1955     Br1970   1.934       .  S
C1956      C1959   1.492       .  S
C1956      C1957   1.407       .  A
C1957      C1958   1.413       .  A
C1957     Br1965   1.931       .  S
C1958     Br1969   1.932       .  S
C1959      C1960   1.408       .  A
C1959      C1964   1.409       .  A
C1960      C1961   1.410       .  A
C1960     Br1971   1.930       .  S
C1961      C1962   1.416       .  A
C1961     Br1967   1.933       .  S
C1962      C1963   1.416       .  A
C1963      C1964   1.411       .  A
C1963     Br1972   1.932       .  S
C1964     Br1968   1.930       .  S
C1973      C1974   1.411       .  A
C1973      C1978   1.412       .  A
C1974      C1975   1.409       .  A
C1974     Br1986   1.930       .  S
C1975      C1976   1.410       .  A
C1975     Br1990   1.930       .  S
C1976      C1979   1.489       .  S
C1976      C1977   1.410       .  A
C1977      C1978   1.410       .  A
C1977     Br1985   1.928       .  S
C1978     Br1989   1.931       .  S
C1979      C1980   1.409       .  A
C1979      C1984   1.409       .  A
C1980      C1981   1.410       .  A
C1980     Br1991   1.930       .  S
C1981      C1982   1.412       .  A
C1981     Br1987   1.927       .  S
C1982      C1983   1.412       .  A
C1983      C1984   1.410       .  A
C1983     Br1992   1.931       .  S
C1984     Br1988   1.928       .  S
C1993      C1994   1.413       .  A
C1993      C1998   1.414       .  A
C1994      C1995   1.409       .  A
C1994     Br2006   1.930       .  S
C1995      C1996   1.408       .  A
C1995     Br2010   1.931       .  S
C1996      C1999   1.483       .  S
C1996      C1997   1.407       .  A
C1997      C1998   1.406       .  A
C1997     Br2005   1.931       .  S
C1998     Br2009   1.932       .  S
C1999      C2000   1.406       .  A
C1999      C2004   1.408       .  A
C2000      C2001   1.406       .  A
C2000     Br2011   1.931       .  S
C2001      C2002   1.414       .  A
C2001     Br2007   1.929       .  S
C2002      C2003   1.416       .  A
C2003      C2004   1.408       .  A
C2003     Br2012   1.933       .  S
C2004     Br2008   1.930       .  S
C2013      C2014   1.414       .  A
C2013      C2018   1.413       .  A
C2014      C2015   1.405       .  A
C2014     Br2026   1.924       .  S
C2015      C2016   1.405       .  A
C2015     Br2030   1.933       .  S
C2016      C2019   1.481       .  S
C2016      C2017   1.408       .  A
C2017      C2018   1.409       .  A
C2017     Br2025   1.929       .  S
C2018     Br2029   1.931       .  S
C2019      C2020   1.406       .  A
C2019      C2024   1.406       .  A
C2020      C2021   1.407       .  A
C2020     Br2031   1.931       .  S
C2021      C2022   1.417       .  A
C2021     Br2027   1.934       .  S
C2022      C2023   1.416       .  A
C2023      C2024   1.407       .  A
C2023     Br2032   1.931       .  S
C2024     Br2028   1.932       .  S
C2033      C2034   1.411       .  A
C2033      C2038   1.411       .  A
C2034      C2035   1.410       .  A
C2034     Br2046   1.931       .  S
C2035      C2036   1.412       .  A
C2035     Br2050   1.931       .  S
C2036      C2039   1.489       .  S
C2036      C2037   1.410       .  A
C2037      C2038   1.406       .  A
C2037     Br2045   1.930       .  S
C2038     Br2049   1.932       .  S
C2039      C2040   1.408       .  A
C2039      C2044   1.405       .  A
C2040      C2041   1.411       .  A
C2040     Br2051   1.931       .  S
C2041      C2042   1.419       .  A
C2041     Br2047   1.932       .  S
C2042      C2043   1.420       .  A
C2043      C2044   1.408       .  A
C2043     Br2052   1.922       .  S
C2044     Br2048   1.933       .  S
C2053      C2054   1.418       .  A
C2053      C2058   1.417       .  A
C2054      C2055   1.407       .  A
C2054     Br2066   1.927       .  S
C2055      C2056   1.406       .  A
C2055     Br2070   1.933       .  S
C2056      C2059   1.485       .  S
C2056      C2057   1.407       .  A
C2057      C2058   1.410       .  A
C2057     Br2065   1.930       .  S
C2058     Br2069   1.932       .  S
C2059      C2060   1.408       .  A
C2059      C2064   1.408       .  A
C2060      C2061   1.409       .  A
C2060     Br2071   1.931       .  S
C2061      C2062   1.414       .  A
C2061     Br2067   1.930       .  S
C2062      C2063   1.415       .  A
C2063      C2064   1.408       .  A
C2063     Br2072   1.932       .  S
C2064     Br2068   1.930       .  S
C2073      C2074   1.426       .  A
C2073      C2078   1.427       .  A
C2074      C2075   1.410       .  A
C2074     Br2086   1.934       .  S
C2075      C2076   1.404       .  A
C2075     Br2090   1.933       .  S
C2076      C2079   1.486       .  S
C2076      C2077   1.403       .  A
C2077      C2078   1.409       .  A
C2077     Br2085   1.934       .  S
C2078     Br2089   1.933       .  S
C2079      C2080   1.409       .  A
C2079      C2084   1.409       .  A
C2080      C2081   1.409       .  A
C2080     Br2091   1.931       .  S
C2081      C2082   1.413       .  A
C2081     Br2087   1.930       .  S
C2082      C2083   1.410       .  A
C2083      C2084   1.408       .  A
C2083     Br2092   1.929       .  S
C2084     Br2088   1.929       .  S
C2093      C2094   1.415       .  A
C2093      C2098   1.418       .  A
C2094      C2095   1.410       .  A
C2094     Br2106   1.931       .  S
C2095      C2096   1.409       .  A
C2095     Br2110   1.931       .  S
C2096      C2099   1.488       .  S
C2096      C2097   1.408       .  A
C2097      C2098   1.409       .  A
C2097     Br2105   1.932       .  S
C2098     Br2109   1.934       .  S
C2099      C2100   1.410       .  A
C2099      C2104   1.411       .  A
C2100      C2101   1.408       .  A
C2100     Br2111   1.930       .  S
C2101      C2102   1.411       .  A
C2101     Br2107   1.932       .  S
C2102      C2103   1.411       .  A
C2103      C2104   1.409       .  A
C2103     Br2112   1.930       .  S
C2104     Br2108   1.930       .  S
C2113      C2114   1.411       .  A
C2113      C2118   1.411       .  A
C2114      C2115   1.407       .  A
C2114     Br2126   1.931       .  S
C2115      C2116   1.408       .  A
C2115     Br2130   1.930       .  S
C2116      C2119   1.484       .  S
C2116      C2117   1.409       .  A
C2117      C2118   1.408       .  A
C2117     Br2125   1.929       .  S
C2118     Br2129   1.929       .  S
C2119      C2120   1.403       .  A
C2119      C2124   1.403       .  A
C2120      C2121   1.411       .  A
C2120     Br2131   1.933       .  S
C2121      C2122   1.429       .  A
C2121     Br2127   1.935       .  S
C2122      C2123   1.427       .  A
C2123      C2124   1.408       .  A
C2123     Br2132   1.934       .  S
C2124     Br2128   1.936       .  S
C2133      C2134   1.416       .  A
C2133      C2138   1.416       .  A
C2134      C2135   1.407       .  A
C2134     Br2146   1.933       .  S
C2135      C2136   1.406       .  A
C2135     Br2150   1.930       .  S
C2136      C2139   1.483       .  S
C2136      C2137   1.407       .  A
C2137      C2138   1.408       .  A
C2137     Br2145   1.932       .  S
C2138     Br2149   1.928       .  S
C2139      C2140   1.408       .  A
C2139      C2144   1.407       .  A
C2140      C2141   1.409       .  A
C2140     Br2151   1.930       .  S
C2141      C2142   1.414       .  A
C2141     Br2147   1.931       .  S
C2142      C2143   1.414       .  A
C2143      C2144   1.406       .  A
C2143     Br2152   1.932       .  S
C2144     Br2148   1.931       .  S
C2153      C2154   1.412       .  A
C2153      C2158   1.411       .  A
C2154      C2155   1.412       .  A
C2154     Br2166   1.931       .  S
C2155      C2156   1.412       .  A
C2155     Br2170   1.930       .  S
C2156      C2159   1.497       .  S
C2156      C2157   1.412       .  A
C2157      C2158   1.411       .  A
C2157     Br2165   1.930       .  S
C2158     Br2169   1.929       .  S
C2159      C2160   1.411       .  A
C2159      C2164   1.409       .  A
C2160      C2161   1.414       .  A
C2160     Br2171   1.930       .  S
C2161      C2162   1.418       .  A
C2161     Br2167   1.932       .  S
C2162      C2163   1.415       .  A
C2163      C2164   1.411       .  A
C2163     Br2172   1.923       .  S
C2164     Br2168   1.932       .  S
C2173      C2174   1.415       .  A
C2173      C2178   1.416       .  A
C2174      C2175   1.410       .  A
C2174     Br2186   1.933       .  S
C2175      C2176   1.409       .  A
C2175     Br2190   1.930       .  S
C2176      C2179   1.488       .  S
C2176      C2177   1.407       .  A
C2177      C2178   1.408       .  A
C2177     Br2185   1.930       .  S
C2178     Br2189   1.933       .  S
C2179      C2180   1.408       .  A
C2179      C2184   1.410       .  A
C2180      C2181   1.409       .  A
C2180     Br2191   1.930       .  S
C2181      C2182   1.414       .  A
C2181     Br2187   1.931       .  S
C2182      C2183   1.410       .  A
C2183      C2184   1.410       .  A
C2183     Br2192   1.929       .  S
C2184     Br2188   1.930       .  S
C2193      C2194   1.411       .  A
C2193      C2198   1.411       .  A
C2194      C2195   1.408       .  A
C2194     Br2206   1.928       .  S
C2195      C2196   1.409       .  A
C2195     Br2210   1.931       .  S
C2196      C2199   1.490       .  S
C2196      C2197   1.412       .  A
C2197      C2198   1.411       .  A
C2197     Br2205   1.931       .  S
C2198     Br2209   1.929       .  S
C2199      C2200   1.414       .  A
C2199      C2204   1.411       .  A
C2200      C2201   1.408       .  A
C2200     Br2211   1.928       .  S
C2201      C2202   1.406       .  A
C2201     Br2207   1.932       .  S
C2202      C2203   1.407       .  A
C2203      C2204   1.407       .  A
C2203     Br2212   1.928       .  S
C2204     Br2208   1.930       .  S
C2213      C2214   1.414       .  A
C2213      C2218   1.413       .  A
C2214      C2215   1.409       .  A
C2214     Br2226   1.931       .  S
C2215      C2216   1.409       .  A
C2215     Br2230   1.931       .  S
C2216      C2219   1.485       .  S
C2216      C2217   1.408       .  A
C2217      C2218   1.408       .  A
C2217     Br2225   1.931       .  S
C2218     Br2229   1.930       .  S
C2219      C2220   1.410       .  A
C2219      C2224   1.409       .  A
C2220      C2221   1.407       .  A
C2220     Br2231   1.930       .  S
C2221      C2222   1.410       .  A
C2221     Br2227   1.931       .  S
C2222      C2223   1.411       .  A
C2223      C2224   1.408       .  A
C2223     Br2232   1.931       .  S
C2224     Br2228   1.929       .  S
C2233      C2234   1.416       .  A
C2233      C2238   1.410       .  A
C2234      C2235   1.410       .  A
C2234     Br2246   1.933       .  S
C2235      C2236   1.408       .  A
C2235     Br2250   1.930       .  S
C2236      C2239   1.487       .  S
C2236      C2237   1.409       .  A
C2237      C2238   1.408       .  A
C2237     Br2245   1.930       .  S
C2238     Br2249   1.925       .  S
C2239      C2240   1.407       .  A
C2239      C2244   1.408       .  A
C2240      C2241   1.409       .  A
C2240     Br2251   1.930       .  S
C2241      C2242   1.415       .  A
C2241     Br2247   1.931       .  S
C2242      C2243   1.417       .  A
C2243      C2244   1.409       .  A
C2243     Br2252   1.933       .  S
C2244     Br2248   1.931       .  S
C2253      C2254   1.422       .  A
C2253      C2258   1.424       .  A
C2254      C2255   1.412       .  A
C2254     Br2266   1.930       .  S
C2255      C2256   1.407       .  A
C2255     Br2270   1.932       .  S
C2256      C2259   1.490       .  S
C2256      C2257   1.405       .  A
C2257      C2258   1.409       .  A
C2257     Br2265   1.933       .  S
C2258     Br2269   1.936       .  S
C2259      C2260   1.404       .  A
C2259      C2264   1.405       .  A
C2260      C2261   1.411       .  A
C2260     Br2271   1.933       .  S
C2261      C2262   1.426       .  A
C2261     Br2267   1.933       .  S
C2262      C2263   1.428       .  A
C2263      C2264   1.411       .  A
C2263     Br2272   1.934       .  S
C2264     Br2268   1.935       .  S
C2273      C2274   1.414       .  A
C2273      C2278   1.411       .  A
C2274      C2275   1.409       .  A
C2274     Br2286   1.931       .  S
C2275      C2276   1.409       .  A
C2275     Br2290   1.930       .  S
C2276      C2279   1.486       .  S
C2276      C2277   1.409       .  A
C2277      C2278   1.407       .  A
C2277     Br2285   1.930       .  S
C2278     Br2289   1.930       .  S
C2279      C2280   1.406       .  A
C2279      C2284   1.407       .  A
C2280      C2281   1.408       .  A
C2280     Br2291   1.932       .  S
C2281      C2282   1.418       .  A
C2281     Br2287   1.930       .  S
C2282      C2283   1.418       .  A
C2283      C2284   1.410       .  A
C2283     Br2292   1.932       .  S
C2284     Br2288   1.930       .  S
C2293      C2294   1.415       .  A
C2293      C2298   1.418       .  A
C2294      C2295   1.406       .  A
C2294     Br2306   1.929       .  S
C2295      C2296   1.406       .  A
C2295     Br2310   1.932       .  S
C2296      C2299   1.480       .  S
C2296      C2297   1.406       .  A
C2297      C2298   1.407       .  A
C2297     Br2305   1.932       .  S
C2298     Br2309   1.933       .  S
C2299      C2300   1.408       .  A
C2299      C2304   1.410       .  A
C2300      C2301   1.404       .  A
C2300     Br2311   1.929       .  S
C2301      C2302   1.410       .  A
C2301     Br2307   1.933       .  S
C2302      C2303   1.410       .  A
C2303      C2304   1.406       .  A
C2303     Br2312   1.932       .  S
C2304     Br2308   1.930       .  S
C2313      C2314   1.411       .  A
C2313      C2318   1.414       .  A
C2314      C2315   1.408       .  A
C2314     Br2326   1.930       .  S
C2315      C2316   1.409       .  A
C2315     Br2330   1.930       .  S
C2316      C2319   1.485       .  S
C2316      C2317   1.408       .  A
C2317      C2318   1.407       .  A
C2317     Br2325   1.930       .  S
C2318     Br2329   1.933       .  S
C2319      C2320   1.408       .  A
C2319      C2324   1.406       .  A
C2320      C2321   1.411       .  A
C2320     Br2331   1.931       .  S
C2321      C2322   1.419       .  A
C2321     Br2327   1.933       .  S
C2322      C2323   1.417       .  A
C2323      C2324   1.406       .  A
C2323     Br2332   1.934       .  S
C2324     Br2328   1.931       .  S
C2333      C2334   1.424       .  A
C2333      C2338   1.422       .  A
C2334      C2335   1.409       .  A
C2334     Br2346   1.932       .  S
C2335      C2336   1.404       .  A
C2335     Br2350   1.934       .  S
C2336      C2339   1.484       .  S
C2336      C2337   1.405       .  A
C2337      C2338   1.409       .  A
C2337     Br2345   1.932       .  S
C2338     Br2349   1.935       .  S
C2339      C2340   1.410       .  A
C2339      C2344   1.409       .  A
C2340      C2341   1.407       .  A
C2340     Br2351   1.929       .  S
C2341      C2342   1.409       .  A
C2341     Br2347   1.930       .  S
C2342      C2343   1.410       .  A
C2343      C2344   1.406       .  A
C2343     Br2352   1.932       .  S
C2344     Br2348   1.929       .  S
C2353      C2354   1.415       .  A
C2353      C2358   1.415       .  A
C2354      C2355   1.409       .  A
C2354     Br2366   1.932       .  S
C2355      C2356   1.408       .  A
C2355     Br2370   1.930       .  S
C2356      C2359   1.488       .  S
C2356      C2357   1.408       .  A
C2357      C2358   1.410       .  A
C2357     Br2365   1.930       .  S
C2358     Br2369   1.930       .  S
C2359      C2360   1.409       .  A
C2359      C2364   1.408       .  A
C2360      C2361   1.410       .  A
C2360     Br2371   1.929       .  S
C2361      C2362   1.413       .  A
C2361     Br2367   1.931       .  S
C2362      C2363   1.415       .  A
C2363      C2364   1.408       .  A
C2363     Br2372   1.933       .  S
C2364     Br2368   1.930       .  S
C2373      C2374   1.412       .  A
C2373      C2378   1.413       .  A
C2374      C2375   1.410       .  A
C2374     Br2386   1.931       .  S
C2375      C2376   1.410       .  A
C2375     Br2390   1.930       .  S
C2376      C2379   1.492       .  S
C2376      C2377   1.410       .  A
C2377      C2378   1.411       .  A
C2377     Br2385   1.928       .  S
C2378     Br2389   1.931       .  S
C2379      C2380   1.411       .  A
C2379      C2384   1.409       .  A
C2380      C2381   1.412       .  A
C2380     Br2391   1.929       .  S
C2381      C2382   1.413       .  A
C2381     Br2387   1.930       .  S
C2382      C2383   1.412       .  A
C2383      C2384   1.409       .  A
C2383     Br2392   1.930       .  S
C2384     Br2388   1.930       .  S
C2393      C2394   1.412       .  A
C2393      C2398   1.414       .  A
C2394      C2395   1.409       .  A
C2394     Br2406   1.926       .  S
C2395      C2396   1.409       .  A
C2395     Br2410   1.930       .  S
C2396      C2399   1.486       .  S
C2396      C2397   1.408       .  A
C2397      C2398   1.409       .  A
C2397     Br2405   1.930       .  S
C2398     Br2409   1.929       .  S
C2399      C2400   1.409       .  A
C2399      C2404   1.409       .  A
C2400      C2401   1.408       .  A
C2400     Br2411   1.930       .  S
C2401      C2402   1.410       .  A
C2401     Br2407   1.928       .  S
C2402      C2403   1.411       .  A
C2403      C2404   1.408       .  A
C2403     Br2412   1.929       .  S
C2404     Br2408   1.929       .  S
C2413      C2414   1.428       .  A
C2413      C2418   1.427       .  A
C2414      C2415   1.411       .  A
C2414     Br2426   1.935       .  S
C2415      C2416   1.404       .  A
C2415     Br2430   1.935       .  S
C2416      C2419   1.487       .  S
C2416      C2417   1.403       .  A
C2417      C2418   1.409       .  A
C2417     Br2425   1.934       .  S
C2418     Br2429   1.935       .  S
C2419      C2420   1.408       .  A
C2419      C2424   1.407       .  A
C2420      C2421   1.408       .  A
C2420     Br2431   1.932       .  S
C2421      C2422   1.417       .  A
C2421     Br2427   1.933       .  S
C2422      C2423   1.419       .  A
C2423      C2424   1.408       .  A
C2423     Br2432   1.933       .  S
C2424     Br2428   1.931       .  S
C2433      C2434   1.411       .  A
C2433      C2438   1.412       .  A
C2434      C2435   1.409       .  A
C2434     Br2446   1.930       .  S
C2435      C2436   1.410       .  A
C2435     Br2450   1.930       .  S
C2436      C2439   1.490   1_565  S
C2436      C2437   1.411       .  A
C2437      C2438   1.410       .  A
C2437     Br2445   1.931   1_565  S
C2438     Br2449   1.931       .  S
C2439      C2440   1.409       .  A
C2439      C2444   1.410       .  A
C2440      C2441   1.408       .  A
C2440     Br2451   1.931       .  S
C2441      C2442   1.413       .  A
C2441     Br2447   1.926       .  S
C2442      C2443   1.415       .  A
C2443      C2444   1.411       .  A
C2443     Br2452   1.931       .  S
C2444     Br2448   1.930       .  S
C2453      C2454   1.429       .  A
C2453      C2458   1.429       .  A
C2454      C2455   1.411       .  A
C2454     Br2466   1.936       .  S
C2455      C2456   1.403       .  A
C2455     Br2470   1.935       .  S
C2456      C2459   1.486       .  S
C2456      C2457   1.402       .  A
C2457      C2458   1.409       .  A
C2457     Br2465   1.936       .  S
C2458     Br2469   1.935       .  S
C2459      C2460   1.403       .  A
C2459      C2464   1.404       .  A
C2460      C2461   1.409       .  A
C2460     Br2471   1.934       .  S
C2461      C2462   1.427       .  A
C2461     Br2467   1.937       .  S
C2462      C2463   1.427       .  A
C2463      C2464   1.409       .  A
C2463     Br2472   1.937       .  S
C2464     Br2468   1.934       .  S
C2473      C2474   1.410       .  A
C2473      C2478   1.409       .  A
C2474      C2475   1.409       .  A
C2474     Br2486   1.929       .  S
C2475      C2476   1.411       .  A
C2475     Br2490   1.930       .  S
C2476      C2479   1.487       .  S
C2476      C2477   1.409       .  A
C2477      C2478   1.408       .  A
C2477     Br2485   1.928       .  S
C2478     Br2489   1.929       .  S
C2479      C2480   1.408       .  A
C2479      C2484   1.409       .  A
C2480      C2481   1.409       .  A
C2480     Br2491   1.930       .  S
C2481      C2482   1.411       .  A
C2481     Br2487   1.922       .  S
C2482      C2483   1.413       .  A
C2483      C2484   1.409       .  A
C2483     Br2492   1.928       .  S
C2484     Br2488   1.930       .  S
C2493      C2494   1.417       .  A
C2493      C2498   1.419       .  A
C2494      C2495   1.408       .  A
C2494     Br2506   1.932       .  S
C2495      C2496   1.407       .  A
C2495     Br2510   1.931       .  S
C2496      C2499   1.488   1_655  S
C2496      C2497   1.407       .  A
C2497      C2498   1.411       .  A
C2497     Br2505   1.931       .  S
C2498     Br2509   1.932       .  S
C2499      C2500   1.409       .  A
C2499      C2504   1.408       .  A
C2500      C2501   1.409       .  A
C2500     Br2511   1.930       .  S
C2501      C2502   1.412       .  A
C2501     Br2507   1.929       .  S
C2502      C2503   1.415       .  A
C2503      C2504   1.408       .  A
C2503     Br2512   1.934       .  S
C2504     Br2508   1.929       .  S
C2513      C2514   1.412       .  A
C2513      C2518   1.414       .  A
C2514      C2515   1.406       .  A
C2514     Br2526   1.926       .  S
C2515      C2516   1.407       .  A
C2515     Br2530   1.930       .  S
C2516      C2519   1.485       .  S
C2516      C2517   1.409       .  A
C2517      C2518   1.409       .  A
C2517     Br2525   1.930       .  S
C2518     Br2529   1.933       .  S
C2519      C2520   1.408       .  A
C2519      C2524   1.409       .  A
C2520      C2521   1.407       .  A
C2520     Br2531   1.930       .  S
C2521      C2522   1.413       .  A
C2521     Br2527   1.931       .  S
C2522      C2523   1.412       .  A
C2523      C2524   1.409       .  A
C2523     Br2532   1.930       .  S
C2524     Br2528   1.930       .  S
C2533      C2534   1.414       .  A
C2533      C2538   1.415       .  A
C2534      C2535   1.406       .  A
C2534     Br2546   1.933       .  S
C2535      C2536   1.409       .  A
C2535     Br2550   1.932       .  S
C2536      C2539   1.486       .  S
C2536      C2537   1.409       .  A
C2537      C2538   1.408       .  A
C2537     Br2545   1.931       .  S
C2538     Br2549   1.933       .  S
C2539      C2540   1.404       .  A
C2539      C2544   1.404       .  A
C2540      C2541   1.408       .  A
C2540     Br2551   1.936       .  S
C2541      C2542   1.426       .  A
C2541     Br2547   1.933       .  S
C2542      C2543   1.428       .  A
C2543      C2544   1.410       .  A
C2543     Br2552   1.935       .  S
C2544     Br2548   1.935       .  S
C2553      C2554   1.416       .  A
C2553      C2558   1.416       .  A
C2554      C2555   1.408       .  A
C2554     Br2566   1.932       .  S
C2555      C2556   1.407       .  A
C2555     Br2570   1.931       .  S
C2556      C2559   1.487   1_655  S
C2556      C2557   1.408       .  A
C2557      C2558   1.411       .  A
C2557     Br2565   1.931       .  S
C2558     Br2569   1.931       .  S
C2559      C2560   1.407       .  A
C2559      C2564   1.407       .  A
C2560      C2561   1.410       .  A
C2560     Br2571   1.931       .  S
C2561      C2562   1.418       .  A
C2561     Br2567   1.929       .  S
C2562      C2563   1.416       .  A
C2563      C2564   1.408       .  A
C2563     Br2572   1.933       .  S
C2564     Br2568   1.930       .  S
C2573      C2574   1.417       .  A
C2573      C2578   1.417       .  A
C2574      C2575   1.407       .  A
C2574     Br2586   1.934       .  S
C2575      C2576   1.407       .  A
C2575     Br2590   1.932       .  S
C2576      C2579   1.486   1_565  S
C2576      C2577   1.409       .  A
C2577      C2578   1.409       .  A
C2577     Br2585   1.931       .  S
C2578     Br2589   1.933       .  S
C2579      C2580   1.410       .  A
C2579      C2584   1.410       .  A
C2580      C2581   1.407       .  A
C2580     Br2591   1.931       .  S
C2581      C2582   1.412       .  A
C2581     Br2587   1.931       .  S
C2582      C2583   1.410       .  A
C2583      C2584   1.409       .  A
C2583     Br2592   1.929       .  S
C2584     Br2588   1.930       .  S
