geometry optimzed in LAMMPS
_audit_creation_date              2020-12-01 
_audit_creation_method            'lammps2cif' 
_symmetry_space_group_name_H-M    'P1' 
_symmetry_Int_Tables_number       1 
_symmetry_cell_setting            triclinic 
loop_ 
_symmetry_equiv_pos_as_xyz 
  x,y,z 
_cell_length_a                    52.37846566 
_cell_length_b                    51.96780937347183 
_cell_length_c                    39.12521007387948 
_cell_angle_alpha                 90.42574357678926 
_cell_angle_beta                  89.8544996146307 
_cell_angle_gamma                 90.14455823963517 
loop_ 
_atom_site_label 
_atom_site_type_symbol 
_atom_site_fract_x 
_atom_site_fract_y 
_atom_site_fract_z 
_atom_site_charge 
Zr1        Zr  0.99933514  0.03821440  0.20192673     2.17500
O2          O  0.99603521  0.07934836  0.17243792    -0.51400
O3          O  0.99742296  0.02622398  0.14104887    -0.74600
O4          O  0.04060923  0.06016049  0.19569512    -0.81400
O5          O  0.92873645  0.03956530  0.22721961    -0.83100
O6          O  0.07179098  0.03411613  0.21587927    -0.78700
O7          O  0.96094973  0.06441330  0.20641343    -0.90400
O8          O  0.99825990  0.98277382  0.13569131    -0.76300
O9          O  0.02611075  0.00154826  0.19645686    -0.85800
O10         O  0.97132567  0.00198924  0.19687607    -0.85500
O11         O  0.02446258  0.03804651  0.25353686    -0.72300
O12         O  0.97463586  0.03700744  0.25379095    -0.84400
Zr13       Zr  0.99932553  0.96199519  0.29481587     2.26400
Zr14       Zr  0.05055458  0.00049801  0.24811220     2.06300
Zr15       Zr  0.94738890  0.00025481  0.24909089     2.10000
Zr16       Zr  0.99830143  0.96534052  0.19235105     1.78800
O17         O  0.91344145  0.01426032  0.28751895    -0.93200
O18         O  0.03633470  0.94792975  0.16468869    -0.41000
O19         O  0.97372572  0.96291815  0.24385760    -0.77600
O20         O  0.02387673  0.96297250  0.24249987    -0.96300
O21         O  0.02658630  0.99861585  0.30022989    -0.89600
O22         O  0.97213273  0.99868559  0.30043965    -0.92500
C23         C  0.99769872  0.00537435  0.12310716     1.01300
C24         C  0.93749815  0.06057076  0.21458152     1.14200
C25         C  0.06417059  0.05478291  0.20138332     1.05000
O26         O  0.08601332  0.98291904  0.21509805    -0.94600
O27         O  0.07117661  0.96507945  0.27643767    -0.90400
O28         O  0.04034212  0.93904407  0.29832105    -0.83500
C29         C  0.06376287  0.94437695  0.29107300     1.11600
O30         O  0.00240813  0.08204994  0.30549515    -0.96600
Zr31       Zr  0.99954706  0.03522507  0.30470215     1.88900
O32         O  0.99896543  0.97389185  0.35573507    -0.73200
O33         O  0.07803739  0.02199852  0.28962904    -0.52500
O34         O  0.03795303  0.05112648  0.33310181    -0.97200
O35         O  0.96227910  0.05648063  0.32937692    -0.54400
O36         O  0.99787230  0.01736733  0.36122619    -0.73800
C37         C  0.99833832  0.99470702  0.37372613     0.98600
O38         O  0.99591671  0.92034197  0.32304027    -0.62600
O39         O  0.91656587  0.98437505  0.20737166    -0.57400
O40         O  0.95928370  0.93761608  0.29550376    -0.94100
O41         O  0.92751394  0.96381521  0.27717112    -0.92500
O42         O  0.96028232  0.94630318  0.16669383    -0.92800
O43         O  0.99867965  0.91850674  0.19050913    -0.91600
C44         C  0.93563788  0.94277774  0.29015530     1.17400
H45         H  0.96006770  0.00356102  0.17749730     0.33400
H46         H  0.03392384  0.94764865  0.23899134     0.44200
H47         H  0.96099371  0.99725062  0.32005476     0.37700
H48         H  0.03471082  0.05339107  0.25615890     0.34200
H49         H  0.03016400  0.94024692  0.14298832     0.26000
H50         H  0.09538382  0.01551836  0.28442069     0.32000
H51         H  0.04283525  0.03753962  0.34942361     0.37900
H52         H  0.95453079  0.95883850  0.14942570     0.32300
H53         H  0.92043503  0.96582113  0.20489991     0.31200
H54         H  0.89743005  0.00903639  0.27595770     0.32900
H55         H  0.95405829  0.04334382  0.34395028     0.31800
H56         H  0.99453344  0.91328774  0.21417255     0.35800
H57         H  0.00300696  0.90753602  0.30673684     0.28600
H58         H  0.00799236  0.07829861  0.15283058     0.32800
H59         H  0.00290683  0.08706295  0.32996043     0.35700
H60         H  0.89994043  0.98483955  0.21945848     0.28300
H61         H  0.00818400  0.92092641  0.34224734     0.41100
H62         H  0.07921037  0.96688161  0.20474597     0.31200
H63         H  0.04626515  0.96320737  0.15750653     0.38800
H64         H  0.95037701  0.05862024  0.30998517     0.30700
H65         H  0.07846133  0.04027377  0.28266798     0.30700
H66         H  0.00360078  0.09235742  0.18806066     0.31000
Zr67       Zr  0.99907774  0.03648549  0.70019707     2.17500
O68         O  0.99477580  0.07736347  0.67038254    -0.51400
O69         O  0.99892077  0.02284754  0.64041878    -0.74600
O70         O  0.03962407  0.06002988  0.69361486    -0.81400
O71         O  0.92716020  0.03186037  0.71741472    -0.83100
O72         O  0.07177529  0.03651462  0.71644791    -0.78700
O73         O  0.95809344  0.05912328  0.69863211    -0.90400
O74         O  0.99954273  0.97928284  0.63667497    -0.76300
O75         O  0.02793025  0.00115111  0.69705928    -0.79400
O76         O  0.97335188  0.99846489  0.69654777    -0.85500
O77         O  0.02354424  0.03890648  0.75219016    -0.72300
O78         O  0.97322039  0.03598592  0.75094247    -0.84400
Zr79       Zr  0.00144564  0.96331570  0.79605061     2.26400
Zr80       Zr  0.05180262  0.00265888  0.74921395     2.06300
Zr81       Zr  0.94825071  0.99750119  0.74775488     2.10000
Zr82       Zr  0.00229118  0.96326100  0.69407021     1.78800
O83         O  0.91917010  0.01616802  0.78967866    -0.93200
O84         O  0.04028286  0.94744244  0.66456337    -0.41000
O85         O  0.97649027  0.96141711  0.74448787    -0.77600
O86         O  0.02739912  0.96361342  0.74494319    -0.96300
O87         O  0.02665173  0.00144063  0.80043101    -0.89600
O88         O  0.97239972  0.99856875  0.79949554    -0.92500
C89         C  0.99899001  0.00166676  0.62335593     1.01300
C90         C  0.93459297  0.05302981  0.70398785     1.14200
C91         C  0.06333212  0.05619149  0.70050692     1.05000
O92         O  0.08434447  0.98228282  0.71369549    -0.94600
O93         O  0.07400513  0.97151927  0.78405568    -0.90400
O94         O  0.04376637  0.94389429  0.80378223    -0.83500
C95         C  0.06713024  0.95068785  0.79886408     1.11600
O96         O  0.99389484  0.08333792  0.79900715    -0.96600
Zr97       Zr  0.99769000  0.03668099  0.80240734     1.88900
O98         O  0.99957175  0.97709025  0.85598320    -0.73200
O99         O  0.08201811  0.02713593  0.78394090    -0.52500
O100        O  0.03538114  0.05755486  0.82650089    -0.97200
O101        O  0.95987494  0.05467295  0.83007581    -0.54400
O102        O  0.99827696  0.02065902  0.85992818    -0.73800
C103        C  0.99878712  0.99824401  0.87318271     0.98600
O104        O  0.00043517  0.92202356  0.82543114    -0.62600
O105        O  0.91312623  0.98253816  0.71186133    -0.57400
O106        O  0.96246600  0.93700069  0.79730330    -0.94100
O107        O  0.92966748  0.95967217  0.77444014    -0.92500
O108        O  0.96752612  0.93964867  0.66701779    -0.92800
O109        O  0.00562779  0.91680736  0.70024461    -0.91600
C110        C  0.93874141  0.93990899  0.78970895     1.17400
H111        H  0.96225818  0.99874135  0.67686398     0.33400
H112        H  0.03846957  0.94884381  0.74312525     0.44200
H113        H  0.96125296  0.99693354  0.81905905     0.37700
H114        H  0.03298051  0.05481876  0.75424173     0.34200
H115        H  0.03418742  0.94172059  0.64179448     0.26000
H116        H  0.07719640  0.02339019  0.80787537     0.32000
H117        H  0.04066444  0.04651625  0.84572725     0.37900
H118        H  0.95307355  0.94128949  0.68322324     0.32300
H119        H  0.91525549  0.96366826  0.70994924     0.31200
H120        H  0.90197623  0.01373456  0.77970704     0.32900
H121        H  0.95203091  0.04024994  0.84275903     0.31800
H122        H  0.00085725  0.91358107  0.72434993     0.35800
H123        H  0.00946113  0.90966347  0.81029891     0.28600
H124        H  0.00660415  0.07644366  0.65062455     0.32800
H125        H  0.99649318  0.08980608  0.82262127     0.35700
H126        H  0.89761869  0.98485908  0.72607927     0.28300
H127        H  0.01156783  0.92409591  0.84569926     0.41100
H128        H  0.10058382  0.99044070  0.72091332     0.31200
H129        H  0.05063991  0.96298961  0.65986857     0.38800
H130        H  0.94784752  0.05805547  0.81115765     0.30700
H131        H  0.09860670  0.01835877  0.78061244     0.30700
H132        H  0.00212486  0.09063928  0.68579163     0.31000
Zr133      Zr  0.28447720  0.24792538  0.07165775     2.17500
O134        O  0.32210397  0.25269992  0.03525434    -0.51400
O135        O  0.26735970  0.24730324  0.01302725    -0.74600
O136        O  0.30863789  0.20758144  0.06591389    -0.81400
O137        O  0.28540521  0.31984523  0.09524716    -0.83100
O138        O  0.28602143  0.17558187  0.09131984    -0.78700
O139        O  0.30895374  0.28799291  0.07063433    -0.90400
O140        O  0.22417869  0.24404006  0.01429343    -0.76300
O141        O  0.24869037  0.21963890  0.07190877    -0.85800
O142        O  0.24744379  0.27463523  0.07133366    -0.85500
O143        O  0.28846795  0.22383134  0.12394372    -0.72300
O144        O  0.28634885  0.27406994  0.12266205    -0.84400
Zr145      Zr  0.21647581  0.24646329  0.17532856     2.26400
Zr146      Zr  0.25210710  0.19574676  0.12383038     2.06300
Zr147      Zr  0.24873983  0.29981676  0.12279691     2.10000
Zr148      Zr  0.21169341  0.24632187  0.07298592     1.78800
O149        O  0.26394608  0.33424041  0.16006981    -0.93200
O150        O  0.19023838  0.20846413  0.04946528    -0.41000
O151        O  0.21278724  0.27144907  0.12414000    -0.77600
O152        O  0.21381927  0.22101838  0.12361911    -0.96300
O153        O  0.25399191  0.22082053  0.17539959    -0.89600
O154        O  0.25170389  0.27577239  0.17462270    -0.92500
C155        C  0.24540042  0.24550784  0.99841510     1.01300
C156        C  0.30530894  0.31159829  0.07935293     1.14200
C157        C  0.30539590  0.18395156  0.07464258     1.05000
O158        O  0.23124073  0.16491751  0.08589027    -0.94600
O159        O  0.22150601  0.17313709  0.15919778    -0.90400
O160        O  0.19607620  0.20414838  0.18233046    -0.83500
C161        C  0.20155601  0.18051160  0.17553709     1.11600
O162        O  0.33507024  0.25198874  0.16385155    -0.96600
Zr163      Zr  0.28916841  0.24998895  0.17421120     1.88900
O164        O  0.23321427  0.24788405  0.23402381    -0.73200
O165        O  0.27413822  0.16447552  0.15916008    -0.52500
O166        O  0.30977900  0.21296751  0.20020632    -0.97200
O167        O  0.30887766  0.28809853  0.19976108    -0.54400
O168        O  0.27643732  0.25078269  0.23314940    -0.73800
C169        C  0.25507917  0.24958909  0.24886114     0.98600
O170        O  0.17756434  0.24862984  0.20972762    -0.62600
O171        O  0.22890390  0.33005459  0.08356650    -0.57400
O172        O  0.19008156  0.28519089  0.17710583    -0.94100
O173        O  0.21254164  0.31797595  0.15314087    -0.92500
O174        O  0.19477851  0.28519971  0.04713477    -0.92800
O175        O  0.16535300  0.24894165  0.07760042    -0.91600
C176        C  0.19302924  0.30894011  0.16896916     1.17400
H177        H  0.24718767  0.28558118  0.05148697     0.33400
H178        H  0.19880407  0.21026040  0.12256758     0.44200
H179        H  0.25117459  0.28722862  0.19417131     0.37700
H180        H  0.30422642  0.21436752  0.12553095     0.34200
H181        H  0.18089224  0.21476067  0.02922046     0.26000
H182        H  0.27295617  0.14802447  0.14632761     0.32000
H183        H  0.29658936  0.20518465  0.21510057     0.37900
H184        H  0.18918722  0.29603047  0.06667641     0.32300
H185        H  0.22388665  0.34496228  0.09796367     0.31200
H186        H  0.26055158  0.35021632  0.14723582     0.32900
H187        H  0.29514770  0.29662943  0.21304460     0.31800
H188        H  0.16213959  0.25463739  0.10142563     0.35800
H189        H  0.16403961  0.24046456  0.19568857     0.28600
H190        H  0.32015200  0.23973498  0.01675550     0.32800
H191        H  0.34312510  0.25004425  0.18655344     0.35700
H192        H  0.24297278  0.33666364  0.06912879     0.28300
H193        H  0.18025782  0.23669917  0.22900798     0.41100
H194        H  0.21278997  0.16668934  0.09091997     0.31200
H195        H  0.20414970  0.19778982  0.03975750     0.38800
H196        H  0.31205828  0.29976076  0.18030627     0.30700
H197        H  0.29240871  0.16934914  0.15792588     0.30700
H198        H  0.33670799  0.24659379  0.04899689     0.31000
Zr199      Zr  0.28486990  0.25111199  0.57494617     2.17500
O200        O  0.32637992  0.25550229  0.54693874    -0.51400
O201        O  0.27148226  0.24972252  0.51475014    -0.74600
O202        O  0.30822156  0.21031019  0.56994414    -0.81400
O203        O  0.27926023  0.32410435  0.58800198    -0.83100
O204        O  0.28298798  0.17883641  0.59194416    -0.78700
O205        O  0.30684150  0.29246061  0.57199387    -0.90400
O206        O  0.22829381  0.24652934  0.51347619    -0.76300
O207        O  0.24967320  0.22194542  0.57411668    -0.85800
O208        O  0.24730544  0.27684958  0.57071386    -0.85500
O209        O  0.28741801  0.22796538  0.62808952    -0.72300
O210        O  0.28415135  0.27891849  0.62437765    -0.84400
Zr211      Zr  0.21292284  0.25096588  0.67354394     2.26400
Zr212      Zr  0.25117332  0.19959786  0.62750019     2.06300
Zr213      Zr  0.24582085  0.30349984  0.62078852     2.10000
Zr214      Zr  0.21232267  0.24777104  0.57096131     1.78800
O215        O  0.26328397  0.33835224  0.65551969    -0.93200
O216        O  0.19577831  0.20772481  0.54699582    -0.41000
O217        O  0.21051299  0.27439919  0.62087161    -0.77600
O218        O  0.21271082  0.22418464  0.62284218    -0.96300
O219        O  0.25093178  0.22613732  0.67762363    -0.89600
O220        O  0.24767674  0.28092743  0.67394399    -0.92500
C221        C  0.25006705  0.24783704  0.49883089     1.01300
C222        C  0.30051493  0.31620941  0.57551021     1.14200
C223        C  0.30310841  0.18661180  0.57640828     1.05000
O224        O  0.23204355  0.16187950  0.60056829    -0.94600
O225        O  0.21808907  0.17829947  0.66047133    -0.90400
O226        O  0.19121010  0.20936148  0.68010775    -0.83500
C227        C  0.19728069  0.18568709  0.67478830     1.11600
O228        O  0.33091020  0.26475088  0.66762972    -0.96600
Zr229      Zr  0.28567481  0.25586591  0.67675230     1.88900
O230        O  0.22759263  0.25058003  0.73324179    -0.73200
O231        O  0.27514905  0.17265342  0.66659824    -0.52500
O232        O  0.31089620  0.22094493  0.70038587    -0.97200
O233        O  0.30015897  0.29368411  0.70870659    -0.54400
O234        O  0.27089006  0.25072507  0.73415168    -0.73800
C235        C  0.24916177  0.24989588  0.74890834     0.98600
O236        O  0.17332181  0.25494484  0.70622271    -0.62600
O237        O  0.22480592  0.33255608  0.58108954    -0.57400
O238        O  0.18676561  0.28989233  0.67312684    -0.94100
O239        O  0.20954003  0.32261839  0.64963714    -0.92500
O240        O  0.19084692  0.28425719  0.54499854    -0.92800
O241        O  0.16592957  0.24543909  0.57266609    -0.91600
C242        C  0.18973706  0.31358770  0.66474060     1.17400
H243        H  0.24754642  0.28733906  0.55042466     0.33400
H244        H  0.19790786  0.21322253  0.62085282     0.44200
H245        H  0.24623842  0.29270516  0.69305807     0.37700
H246        H  0.30313541  0.21846337  0.63015701     0.34200
H247        H  0.18714571  0.21279395  0.52560547     0.26000
H248        H  0.27279506  0.15495337  0.65758513     0.32000
H249        H  0.29829293  0.20948503  0.71150471     0.37900
H250        H  0.20130892  0.28874302  0.52478591     0.32300
H251        H  0.20627873  0.32937963  0.58396923     0.31200
H252        H  0.25808776  0.35424798  0.64362494     0.32900
H253        H  0.28619803  0.29798087  0.72485609     0.31800
H254        H  0.16138535  0.25114500  0.59610188     0.35800
H255        H  0.15989316  0.24682005  0.69196206     0.28600
H256        H  0.32628971  0.24314856  0.52754220     0.32800
H257        H  0.33918691  0.26210252  0.69004986     0.35700
H258        H  0.22760709  0.34998294  0.59080264     0.28300
H259        H  0.17525608  0.24338943  0.72605257     0.41100
H260        H  0.21719567  0.16859957  0.58788353     0.31200
H261        H  0.21110938  0.19823684  0.53916849     0.38800
H262        H  0.29997573  0.30780508  0.69187237     0.30700
H263        H  0.29330194  0.17666823  0.66191281     0.30700
H264        H  0.33905595  0.24864164  0.56323515     0.31000
Zr265      Zr  0.21478805  0.74705867  0.31600832     2.17500
O266        O  0.17572979  0.73902772  0.28371430    -0.51400
O267        O  0.22796104  0.74619320  0.25563369    -0.74600
O268        O  0.18942326  0.78624859  0.30891912    -0.81400
O269        O  0.21861258  0.67598248  0.34221746    -0.83100
O270        O  0.21317827  0.82016580  0.32757123    -0.78700
O271        O  0.19189501  0.70603090  0.32025682    -0.90400
O272        O  0.27075300  0.75218138  0.25168127    -0.76300
O273        O  0.24990075  0.77588865  0.30993884    -0.85800
O274        O  0.25229903  0.72113999  0.31377495    -0.85500
O275        O  0.21300219  0.77436740  0.36624733    -0.72300
O276        O  0.21617508  0.72407288  0.36901856    -0.84400
Zr277      Zr  0.28872066  0.75489932  0.41064622     2.26400
Zr278      Zr  0.24881768  0.80287321  0.35980092     2.06300
Zr279      Zr  0.25429202  0.69888001  0.36698345     2.10000
Zr280      Zr  0.28735937  0.74998000  0.30871711     1.78800
O281        O  0.24066066  0.66789532  0.40980525    -0.93200
O282        O  0.30818129  0.78738290  0.28389527    -0.41000
O283        O  0.28989788  0.72721211  0.36126895    -0.77600
O284        O  0.28735600  0.77799121  0.35728344    -0.96300
O285        O  0.25106493  0.78051312  0.41309235    -0.89600
O286        O  0.25389331  0.72563286  0.41707611    -0.92500
C287        C  0.24866312  0.74938850  0.23838048     1.01300
C288        C  0.19747507  0.68282832  0.32866127     1.14200
C289        C  0.19303781  0.81047056  0.31388610     1.05000
O290        O  0.26609488  0.83434998  0.32001420    -0.94600
O291        O  0.28107118  0.82688925  0.39124564    -0.90400
O292        O  0.30805297  0.79758443  0.41443289    -0.83500
C293        C  0.30160765  0.82071436  0.40695666     1.11600
O294        O  0.16983727  0.75055615  0.42092529    -0.96600
Zr295      Zr  0.21633448  0.75129380  0.41855046     1.88900
O296        O  0.27639961  0.75410873  0.47117881    -0.73200
O297        O  0.22816123  0.83620927  0.39399825    -0.52500
O298        O  0.19860913  0.79077019  0.44272081    -0.97200
O299        O  0.19821382  0.71336122  0.44588879    -0.54400
O300        O  0.23322216  0.75354829  0.47548148    -0.73800
C301        C  0.25553883  0.75408752  0.48857881     0.98600
O302        O  0.32963704  0.76239624  0.43886687    -0.62600
O303        O  0.27067743  0.66560395  0.32856985    -0.57400
O304        O  0.31584339  0.71639976  0.41277551    -0.94100
O305        O  0.29283576  0.68244464  0.39269979    -0.92500
O306        O  0.30396341  0.71272178  0.27771038    -0.92800
O307        O  0.33338970  0.74517658  0.31450872    -0.91600
C308        C  0.31295419  0.69227675  0.40616528     1.17400
H309        H  0.25165539  0.70913906  0.29480363     0.33400
H310        H  0.30205587  0.78899259  0.35425973     0.44200
H311        H  0.25564351  0.71523400  0.43729065     0.37700
H312        H  0.19720077  0.78372202  0.36856312     0.34200
H313        H  0.31684703  0.78067942  0.26316397     0.26000
H314        H  0.22991342  0.85205217  0.38026608     0.32000
H315        H  0.21266570  0.79860113  0.45613469     0.37900
H316        H  0.30920519  0.71935077  0.25508275     0.32300
H317        H  0.28938384  0.66834990  0.32784963     0.31200
H318        H  0.24364709  0.65085312  0.39906396     0.32900
H319        H  0.21084643  0.70825785  0.46333759     0.31800
H320        H  0.33603492  0.74003679  0.33856585     0.35800
H321        H  0.33016805  0.75024503  0.45823019     0.28600
H322        H  0.17658321  0.75059975  0.26374593     0.32800
H323        H  0.16542949  0.75261928  0.44543252     0.35700
H324        H  0.26840745  0.64929873  0.34116779     0.28300
H325        H  0.34293879  0.75629389  0.42271802     0.41100
H326        H  0.28469759  0.83470677  0.32440415     0.31200
H327        H  0.29398852  0.79795106  0.27503301     0.38800
H328        H  0.19918734  0.69962834  0.42826720     0.30700
H329        H  0.20971384  0.83203956  0.39323281     0.30700
H330        H  0.16164341  0.74590275  0.29800388     0.31000
Zr331      Zr  0.21475733  0.75228520  0.81711630     2.17500
O332        O  0.17388793  0.74936515  0.78735475    -0.51400
O333        O  0.22639900  0.75218976  0.75614566    -0.74600
O334        O  0.19176795  0.79323773  0.81459732    -0.81400
O335        O  0.21702321  0.68018758  0.83295964    -0.83100
O336        O  0.21646981  0.82523051  0.83668689    -0.78700
O337        O  0.19007113  0.71242017  0.81798499    -0.90400
O338        O  0.26951193  0.75237153  0.75116561    -0.76300
O339        O  0.25048806  0.78060551  0.81362298    -0.85800
O340        O  0.25133750  0.72523366  0.81078282    -0.85500
O341        O  0.21431776  0.77613092  0.87032184    -0.72300
O342        O  0.21628556  0.72556563  0.86695619    -0.84400
Zr343      Zr  0.28981569  0.75200377  0.90993113     2.26400
Zr344      Zr  0.25081008  0.80397907  0.86683417     2.06300
Zr345      Zr  0.25357763  0.69953358  0.86116348     2.10000
Zr346      Zr  0.28696189  0.75346615  0.80782010     1.78800
O347        O  0.23714066  0.66562605  0.89792551    -0.93200
O348        O  0.30364357  0.79089636  0.77791765    -0.41000
O349        O  0.29012730  0.72718921  0.85762994    -0.77600
O350        O  0.28825650  0.77812186  0.85926591    -0.96300
O351        O  0.25281540  0.77803243  0.91698429    -0.89600
O352        O  0.25445573  0.72312849  0.91395324    -0.92500
C353        C  0.24710331  0.75228491  0.73837211     1.01300
C354        C  0.19558093  0.68854587  0.82183661     1.14200
C355        C  0.19614388  0.81697980  0.82199004     1.05000
O356        O  0.26631883  0.84147753  0.83620197    -0.94600
O357        O  0.28662855  0.82509369  0.89495261    -0.90400
O358        O  0.31144806  0.79340082  0.91683817    -0.83500
C359        C  0.30682290  0.81710539  0.91007171     1.11600
O360        O  0.17088138  0.74722609  0.91788810    -0.96600
Zr361      Zr  0.21738361  0.74921811  0.91939372     1.88900
O362        O  0.27818082  0.75108812  0.97079054    -0.73200
O363        O  0.22998616  0.82974573  0.91098820    -0.52500
O364        O  0.19890288  0.78576918  0.94999050    -0.97200
O365        O  0.19940263  0.70987397  0.94317769    -0.54400
O366        O  0.23509720  0.74829896  0.97588693    -0.73800
C367        C  0.25752526  0.74966718  0.98856875     0.98600
O368        O  0.33265594  0.75618918  0.93384481    -0.62600
O369        O  0.27040086  0.66855590  0.81995481    -0.57400
O370        O  0.31358205  0.71157591  0.91184501    -0.94100
O371        O  0.29011386  0.67940173  0.88789210    -0.92500
O372        O  0.30686138  0.71708746  0.77868208    -0.92800
O373        O  0.33322710  0.75726421  0.81150110    -0.91600
C374        C  0.30993291  0.68787818  0.90358868     1.17400
H375        H  0.25008607  0.71432245  0.79075354     0.33400
H376        H  0.30326373  0.78869465  0.85653105     0.44200
H377        H  0.25632415  0.71157880  0.93301945     0.37700
H378        H  0.19880804  0.78579273  0.87382594     0.34200
H379        H  0.30883654  0.78435603  0.75510342     0.26000
H380        H  0.23376176  0.84776559  0.90463339     0.32000
H381        H  0.19422003  0.77911093  0.97281913     0.37900
H382        H  0.31646454  0.70802521  0.79670339     0.32300
H383        H  0.28895924  0.67211195  0.81900613     0.31200
H384        H  0.24223691  0.64937030  0.88647563     0.32900
H385        H  0.21247950  0.70336278  0.95913298     0.31800
H386        H  0.33734388  0.75189487  0.83508267     0.35800
H387        H  0.33361768  0.74370779  0.95280492     0.28600
H388        H  0.17460311  0.76228440  0.76889045     0.32800
H389        H  0.16521412  0.74790099  0.94204439     0.35700
H390        H  0.26903241  0.65172012  0.83150770     0.28300
H391        H  0.34448682  0.74955375  0.91608430     0.41100
H392        H  0.26780031  0.83561750  0.81215415     0.31200
H393        H  0.28850844  0.80171027  0.77340401     0.38800
H394        H  0.19950074  0.69739984  0.92393254     0.30700
H395        H  0.21147800  0.82770240  0.90661230     0.30700
H396        H  0.16088160  0.75591810  0.80363456     0.31000
Zr397      Zr  0.49858621  0.96801785  0.94543097     2.17500
O398        O  0.50187326  0.93198082  0.90527687    -0.51400
O399        O  0.49743978  0.98593315  0.88778813    -0.74600
O400        O  0.45760256  0.94581432  0.93853507    -0.81400
O401        O  0.56990228  0.96400698  0.96731433    -0.83100
O402        O  0.42674462  0.97120633  0.96181502    -0.78700
O403        O  0.53707899  0.94125356  0.94394892    -0.90400
O404        O  0.49740185  0.02955764  0.88991780    -0.76300
O405        O  0.47147216  0.00471002  0.94818543    -0.85800
O406        O  0.52608201  0.00482020  0.94562432    -0.85500
O407        O  0.47451345  0.96315021  0.99776328    -0.72300
O408        O  0.52466729  0.96425230  0.99541279    -0.84400
Zr409      Zr  0.50025516  0.03434026  0.05106676     2.26400
Zr410      Zr  0.44803161  0.00069318  0.00051283     2.06300
Zr411      Zr  0.55159508  0.00136180  0.99617661     2.10000
Zr412      Zr  0.49878833  0.04141087  0.94943296     1.78800
O413        O  0.58408503  0.98440160  0.03424978    -0.93200
O414        O  0.46207743  0.06402330  0.92600757    -0.41000
O415        O  0.52454616  0.03821336  0.99926612    -0.77600
O416        O  0.47419012  0.03857129  0.00069620    -0.96300
O417        O  0.47343423  0.99725519  0.05109759    -0.89600
O418        O  0.52798141  0.99789976  0.04846041    -0.92500
C419        C  0.49693562  0.00815128  0.87363186     1.01300
C420        C  0.56071991  0.94401165  0.95211921     1.14200
C421        C  0.43414780  0.95142436  0.94481755     1.05000
O422        O  0.41416620  0.02329588  0.97062569    -0.94600
O423        O  0.42744992  0.03224183  0.03701791    -0.90400
O424        O  0.45914910  0.05596473  0.06151122    -0.83500
C425        C  0.43549076  0.05136508  0.05489182     1.11600
O426        O  0.49922293  0.91436802  0.03838148    -0.96600
Zr427      Zr  0.50100822  0.96087506  0.04739925     1.88900
O428        O  0.50381509  0.01657759  0.10880350    -0.73200
O429        O  0.41951332  0.97585250  0.03702781    -0.52500
O430        O  0.46410891  0.94050160  0.07412793    -0.97200
O431        O  0.53931807  0.93887407  0.06712650    -0.54400
O432        O  0.50429614  0.97294860  0.10674808    -0.73800
C433        C  0.50498224  0.99436059  0.12300480     0.98600
O434        O  0.50473444  0.07185706  0.08840965    -0.62600
O435        O  0.58359841  0.01744658  0.95632207    -0.57400
O436        O  0.53871472  0.06116412  0.04971636    -0.94100
O437        O  0.57089076  0.03833562  0.02491237    -0.92500
O438        O  0.53657907  0.06269685  0.92674243    -0.92800
O439        O  0.49857769  0.08756828  0.96092712    -0.91600
C440        C  0.56219894  0.05817846  0.04089401     1.17400
H441        H  0.53676043  0.00529745  0.92546975     0.33400
H442        H  0.46394433  0.05397128  0.00081991     0.44200
H443        H  0.53958984  0.99768218  0.06759960     0.37700
H444        H  0.46435106  0.94764734  0.99829340     0.34200
H445        H  0.46897215  0.07403746  0.90660398     0.26000
H446        H  0.40216872  0.98190061  0.03116583     0.32000
H447        H  0.46001031  0.95134523  0.09430110     0.37900
H448        H  0.54595001  0.06894243  0.94714957     0.32300
H449        H  0.58169546  0.03638788  0.95691820     0.31200
H450        H  0.60001476  0.99340865  0.02767775     0.32900
H451        H  0.54602430  0.94957071  0.08613804     0.31800
H452        H  0.50243961  0.08912928  0.98562216     0.35800
H453        H  0.49663889  0.08626804  0.07610759     0.28600
H454        H  0.48907446  0.93532352  0.88726250     0.32800
H455        H  0.50100633  0.90665793  0.06133098     0.35700
H456        H  0.60014995  0.01422748  0.96766611     0.28300
H457        H  0.49339259  0.06856317  0.10820222     0.41100
H458        H  0.41885196  0.02207807  0.94613518     0.31200
H459        H  0.45152793  0.05043773  0.91512914     0.38800
H460        H  0.55191530  0.94109600  0.04846809     0.30700
H461        H  0.42025415  0.95802983  0.02796274     0.30700
H462        H  0.49520620  0.91681835  0.91764810     0.31000
Zr463      Zr  0.50075638  0.96451984  0.44856704     2.17500
O464        O  0.50454275  0.92540482  0.41398095    -0.51400
O465        O  0.50438839  0.97895822  0.38884802    -0.74600
O466        O  0.45956196  0.94312084  0.43993592    -0.81400
O467        O  0.57103448  0.96083084  0.47563650    -0.83100
O468        O  0.42790370  0.96799345  0.46229947    -0.78700
O469        O  0.53911623  0.93758616  0.45100297    -0.90400
O470        O  0.50642229  0.02251539  0.38819300    -0.76300
O471        O  0.47498796  0.00225290  0.44531221    -0.85800
O472        O  0.52973125  0.99997598  0.44866598    -0.85500
O473        O  0.47382746  0.96365055  0.49895967    -0.72300
O474        O  0.52358620  0.96216735  0.50172435    -0.84400
Zr475      Zr  0.49964574  0.03632461  0.54858009     2.26400
Zr476      Zr  0.44851756  0.00204685  0.49559043     2.06300
Zr477      Zr  0.55180001  0.99826644  0.50206605     2.10000
Zr478      Zr  0.50408309  0.03762787  0.44640445     1.78800
O479        O  0.58332849  0.97899040  0.53958340    -0.93200
O480        O  0.46953815  0.05975071  0.41720656    -0.41000
O481        O  0.52690871  0.03662307  0.49915592    -0.77600
O482        O  0.47668971  0.03864850  0.49516475    -0.96300
O483        O  0.47098998  0.00059759  0.54886348    -0.89600
O484        O  0.52547926  0.99871894  0.55220017    -0.92500
C485        C  0.50621514  0.00059113  0.37319048     1.01300
C486        C  0.56248844  0.94071207  0.46028636     1.14200
C487        C  0.43592678  0.94795194  0.44613417     1.05000
O488        O  0.41724972  0.02231208  0.45862344    -0.94600
O489        O  0.42823417  0.03785484  0.52580719    -0.90400
O490        O  0.45957148  0.06044472  0.55289908    -0.83500
C491        C  0.43625024  0.05718501  0.54354487     1.11600
O492        O  0.49816079  0.91634880  0.54693416    -0.96600
Zr493      Zr  0.49691944  0.96312228  0.55147444     1.88900
O494        O  0.49661593  0.02234920  0.60823520    -0.73200
O495        O  0.41601144  0.98282833  0.53213364    -0.52500
O496        O  0.45756768  0.94328821  0.57190226    -0.97200
O497        O  0.53249168  0.94402645  0.58239874    -0.54400
O498        O  0.49190015  0.97897644  0.60913662    -0.73800
C499        C  0.49327292  0.00095596  0.62394674     0.98600
O500        O  0.50437124  0.07635192  0.58100201    -0.62600
O501        O  0.58378236  0.01671362  0.46409547    -0.57400
O502        O  0.54069124  0.05900065  0.55249920    -0.94100
O503        O  0.57219870  0.03176820  0.53536984    -0.92500
O504        O  0.54351566  0.05720387  0.42604393    -0.92800
O505        O  0.50595750  0.08424512  0.45213367    -0.91600
C506        C  0.56434922  0.05295570  0.54856534     1.17400
H507        H  0.54160902  0.99893130  0.42977232     0.33400
H508        H  0.46735175  0.05450055  0.49271641     0.44200
H509        H  0.53583252  0.99903922  0.57259630     0.37700
H510        H  0.46329593  0.94843675  0.50020763     0.34200
H511        H  0.47663152  0.06435928  0.39456939     0.26000
H512        H  0.39965733  0.98650839  0.52052692     0.32000
H513        H  0.44850565  0.95714400  0.58445343     0.37900
H514        H  0.54951138  0.04588203  0.40723650     0.32300
H515        H  0.58094111  0.03551944  0.46551344     0.31200
H516        H  0.60000878  0.98301230  0.52889491     0.32900
H517        H  0.53662052  0.95628341  0.60108109     0.31800
H518        H  0.50801563  0.08734794  0.47698010     0.35800
H519        H  0.49783827  0.09011034  0.56602078     0.28600
H520        H  0.49331433  0.92797787  0.39397237     0.32800
H521        H  0.49526494  0.90997512  0.57042440     0.35700
H522        H  0.60022462  0.01401947  0.47594439     0.28300
H523        H  0.49190408  0.07528206  0.60001980     0.41100
H524        H  0.42138849  0.01597591  0.43534167     0.31200
H525        H  0.45677737  0.04617192  0.41219712     0.38800
H526        H  0.54717734  0.94521624  0.56650867     0.30700
H527        H  0.41828111  0.96401323  0.52942847     0.30700
H528        H  0.49621369  0.91160024  0.42732906     0.31000
Zr529      Zr  0.71369584  0.74977578  0.42782885     2.17500
O530        O  0.67173216  0.75576874  0.45397173    -0.51400
O531        O  0.72502712  0.75121528  0.48871296    -0.74600
O532        O  0.69045832  0.70928267  0.43525185    -0.81400
O533        O  0.71842377  0.82169009  0.40540739    -0.83100
O534        O  0.71426228  0.67603188  0.41470838    -0.78700
O535        O  0.69156217  0.79116469  0.42640065    -0.90400
O536        O  0.76814591  0.75040475  0.49362457    -0.76300
O537        O  0.74851082  0.72073255  0.43330374    -0.85800
O538        O  0.75113779  0.77571961  0.43193603    -0.85500
O539        O  0.71285535  0.72332427  0.37688117    -0.72300
O540        O  0.71571546  0.77402565  0.37582521    -0.84400
Zr541      Zr  0.78863995  0.74387562  0.33402090     2.26400
Zr542      Zr  0.74873416  0.69497884  0.38213165     2.06300
Zr543      Zr  0.75397409  0.79901006  0.37956706     2.10000
Zr544      Zr  0.78586195  0.74667685  0.43683162     1.78800
O545        O  0.73988637  0.83226850  0.34039198    -0.93200
O546        O  0.80016927  0.70832114  0.46668480    -0.41000
O547        O  0.78929712  0.77033794  0.38478197    -0.77600
O548        O  0.78704315  0.72009087  0.38667450    -0.96300
O549        O  0.75096409  0.71834994  0.32973876    -0.89600
O550        O  0.75393073  0.77327468  0.32857652    -0.92500
C551        C  0.74566819  0.75132578  0.50646632     1.01300
C552        C  0.69734656  0.81458214  0.41918819     1.14200
C553        C  0.69437643  0.68522219  0.42954641     1.05000
O554        O  0.76703789  0.66213998  0.41873860    -0.94600
O555        O  0.78148245  0.67138798  0.35114099    -0.90400
O556        O  0.80821970  0.70128535  0.32848500    -0.83500
C557        C  0.80200855  0.67796299  0.33549542     1.11600
O558        O  0.66992714  0.75245253  0.32773259    -0.96600
Zr559      Zr  0.71621212  0.74766398  0.32560008     1.88900
O560        O  0.77673698  0.74272297  0.27324296    -0.73200
O561        O  0.72672644  0.66522044  0.34377506    -0.52500
O562        O  0.69359047  0.71068880  0.30164993    -0.97200
O563        O  0.70166009  0.78518820  0.29408265    -0.54400
O564        O  0.73352854  0.74286614  0.26915856    -0.73800
C565        C  0.75585030  0.74219479  0.25596544     0.98600
O566        O  0.83211776  0.74501787  0.31138464    -0.62600
O567        O  0.77182162  0.83041813  0.41939912    -0.57400
O568        O  0.81445171  0.78281140  0.32930155    -0.94100
O569        O  0.79192556  0.81600978  0.35235967    -0.92500
O570        O  0.80625769  0.78422359  0.46256209    -0.92800
O571        O  0.83225155  0.74372653  0.43622568    -0.91600
C572        C  0.81151467  0.80669781  0.33692933     1.17400
H573        H  0.75023317  0.78747081  0.45114449     0.33400
H574        H  0.80175051  0.70913827  0.38934866     0.44200
H575        H  0.75603485  0.78392659  0.30864816     0.37700
H576        H  0.69712659  0.71375066  0.37464988     0.34200
H577        H  0.81056567  0.71488447  0.48598563     0.26000
H578        H  0.72841749  0.64819361  0.35471459     0.32000
H579        H  0.70659928  0.70111072  0.28832273     0.37900
H580        H  0.81272907  0.77818972  0.48486258     0.32300
H581        H  0.78995932  0.82545691  0.42178982     0.31200
H582        H  0.74430361  0.84869706  0.35194959     0.32900
H583        H  0.71605725  0.79017030  0.27906614     0.31800
H584        H  0.83684615  0.74328776  0.41166498     0.35800
H585        H  0.84288620  0.73644166  0.32867201     0.28600
H586        H  0.67138184  0.74449470  0.47426255     0.32800
H587        H  0.66420475  0.75232051  0.30362098     0.35700
H588        H  0.77230395  0.84673883  0.40651454     0.28300
H589        H  0.83226162  0.73336505  0.29125143     0.41100
H590        H  0.78517345  0.66717770  0.42140136     0.31200
H591        H  0.78461701  0.70127723  0.47765063     0.38800
H592        H  0.70071912  0.79912477  0.31142068     0.30700
H593        H  0.70839601  0.66951690  0.34609219     0.30700
H594        H  0.65934776  0.74799579  0.43780162     0.31000
Zr595      Zr  0.71048363  0.74707602  0.92950953     2.17500
O596        O  0.66882607  0.74972502  0.95749241    -0.51400
O597        O  0.72292281  0.74626958  0.98991495    -0.74600
O598        O  0.68911150  0.70499205  0.93420375    -0.81400
O599        O  0.71305812  0.81927176  0.91407413    -0.83100
O600        O  0.71524116  0.67416237  0.91220502    -0.78700
O601        O  0.68630581  0.78755932  0.93195273    -0.90400
O602        O  0.76609999  0.74439876  0.99345457    -0.76300
O603        O  0.74627848  0.71889544  0.93147892    -0.85800
O604        O  0.74762733  0.77352762  0.93587866    -0.85500
O605        O  0.70983080  0.72359058  0.87604550    -0.72300
O606        O  0.71191946  0.77413599  0.87993649    -0.84400
Zr607      Zr  0.78572188  0.74848154  0.83435830     2.26400
Zr608      Zr  0.74659722  0.69622955  0.87800608     2.06300
Zr609      Zr  0.74954352  0.79979459  0.88604156     2.10000
Zr610      Zr  0.78330774  0.74522585  0.93665392     1.78800
O611        O  0.73347426  0.83577402  0.85286666    -0.93200
O612        O  0.79919303  0.70551050  0.96152409    -0.41000
O613        O  0.78592222  0.77211835  0.88748658    -0.77600
O614        O  0.78463867  0.72156861  0.88424052    -0.96300
O615        O  0.74843312  0.72245672  0.82803602    -0.89600
O616        O  0.74997956  0.77695825  0.83272652    -0.92500
C617        C  0.74386695  0.74504867  0.00690683     1.01300
C618        C  0.69186631  0.81138083  0.92678747     1.14200
C619        C  0.69493826  0.68139061  0.92771100     1.05000
O620        O  0.76818917  0.66162808  0.90798875    -0.94600
O621        O  0.77855689  0.67457922  0.84424312    -0.90400
O622        O  0.80518506  0.70570480  0.82434065    -0.83500
C623        C  0.79903433  0.68194616  0.82930921     1.11600
O624        O  0.66628013  0.75178756  0.82994970    -0.96600
Zr625      Zr  0.71280520  0.75079023  0.82713672     1.88900
O626        O  0.77343283  0.75178318  0.77401956    -0.73200
O627        O  0.72329808  0.66791665  0.83905160    -0.52500
O628        O  0.69405800  0.71334495  0.79888774    -0.97200
O629        O  0.69457609  0.78940422  0.80199430    -0.54400
O630        O  0.73016969  0.75250144  0.77009418    -0.73800
C631        C  0.75253180  0.75273212  0.75681740     0.98600
O632        O  0.82925017  0.75075600  0.81203496    -0.62600
O633        O  0.76862086  0.82776572  0.92931115    -0.57400
O634        O  0.80978517  0.78924710  0.83358307    -0.94100
O635        O  0.78469665  0.82055204  0.85672420    -0.92500
O636        O  0.80461050  0.78122734  0.96494684    -0.92800
O637        O  0.82970854  0.74268084  0.93647824    -0.91600
C638        C  0.80504143  0.81290227  0.84145778     1.17400
H639        H  0.74668127  0.78413547  0.95621043     0.33400
H640        H  0.79949577  0.71068816  0.88571340     0.44200
H641        H  0.75157307  0.78891910  0.81406899     0.37700
H642        H  0.69438114  0.71360223  0.87341965     0.34200
H643        H  0.80795669  0.71097293  0.98277774     0.26000
H644        H  0.72657846  0.65035616  0.84762330     0.32000
H645        H  0.70812604  0.70575294  0.78523958     0.37900
H646        H  0.79190004  0.78822897  0.98128988     0.32300
H647        H  0.78717543  0.82434585  0.92781066     0.31200
H648        H  0.73818835  0.85131403  0.86625162     0.32900
H649        H  0.70914714  0.79859082  0.79146005     0.31800
H650        H  0.83472988  0.74763447  0.91301232     0.35800
H651        H  0.83984375  0.74052966  0.82784828     0.28600
H652        H  0.66971277  0.73799968  0.97729249     0.32800
H653        H  0.66040104  0.75142295  0.80591282     0.35700
H654        H  0.76664095  0.84538546  0.92024952     0.28300
H655        H  0.82912659  0.74086082  0.79030713     0.41100
H656        H  0.76326960  0.66380938  0.93227441     0.31200
H657        H  0.78374480  0.69637290  0.96963012     0.38800
H658        H  0.68969880  0.80030605  0.82181188     0.30700
H659        H  0.70502070  0.67098747  0.84409582     0.30700
H660        H  0.65654500  0.74152424  0.94155293     0.31000
Zr661      Zr  0.71466075  0.25025186  0.07956815     2.17500
O662        O  0.67383926  0.24600155  0.05002928    -0.51400
O663        O  0.72925078  0.24772531  0.01955043    -0.74600
O664        O  0.69320557  0.29171633  0.07083335    -0.81400
O665        O  0.71480852  0.17833245  0.10206514    -0.83100
O666        O  0.71809880  0.32361836  0.09298447    -0.78700
O667        O  0.69050915  0.20969166  0.07838549    -0.90400
O668        O  0.77255923  0.24793453  0.01844452    -0.76300
O669        O  0.75194686  0.27653109  0.07547579    -0.85800
O670        O  0.75022980  0.22170997  0.07904453    -0.85500
O671        O  0.71383890  0.27713989  0.13035847    -0.72300
O672        O  0.71288046  0.22694205  0.13248838    -0.84400
Zr673      Zr  0.78675459  0.25227107  0.17731725     2.26400
Zr674      Zr  0.75164049  0.30317825  0.12583783     2.06300
Zr675      Zr  0.74915577  0.19921645  0.13209629     2.10000
Zr676      Zr  0.78746736  0.24783965  0.07592099     1.78800
O677        O  0.72809156  0.17103326  0.17287447    -0.93200
O678        O  0.81044917  0.28338197  0.04958031    -0.41000
O679        O  0.78681242  0.22469390  0.12806971    -0.77600
O680        O  0.78834066  0.27561573  0.12435864    -0.96300
O681        O  0.75084114  0.28049852  0.17906497    -0.89600
O682        O  0.74980795  0.22567828  0.18209865    -0.92500
C683        C  0.75088172  0.24735717  0.00375240     1.01300
C684        C  0.69503959  0.18607828  0.08603001     1.14200
C685        C  0.69823582  0.31556764  0.07696478     1.05000
O686        O  0.77173602  0.33324844  0.08664186    -0.94600
O687        O  0.78667643  0.32444446  0.15565815    -0.90400
O688        O  0.80968442  0.29320181  0.18171635    -0.83500
C689        C  0.80616394  0.31660115  0.17248367     1.11600
O690        O  0.66750249  0.25498747  0.17852050    -0.96600
Zr691      Zr  0.71395701  0.25361077  0.18266012     1.88900
O692        O  0.77345170  0.25368225  0.23709171    -0.73200
O693        O  0.73206053  0.33762573  0.15930949    -0.52500
O694        O  0.69687023  0.29256578  0.20905114    -0.97200
O695        O  0.69274670  0.21720404  0.20979701    -0.54400
O696        O  0.73017460  0.25342489  0.24039290    -0.73800
C697        C  0.75239534  0.25362213  0.25397833     0.98600
O698        O  0.82851891  0.24840308  0.20436621    -0.62600
O699        O  0.76914241  0.16525892  0.09808538    -0.57400
O700        O  0.80974758  0.21142948  0.18136090    -0.94100
O701        O  0.78313689  0.17938217  0.16383405    -0.92500
O702        O  0.80555930  0.20951764  0.04903405    -0.92800
O703        O  0.83318258  0.24245881  0.08422529    -0.91600
C704        C  0.80407441  0.18754629  0.17687944     1.17400
H705        H  0.74913673  0.20980533  0.06003763     0.33400
H706        H  0.80391563  0.28533584  0.12157862     0.44200
H707        H  0.75051585  0.21509217  0.20225754     0.37700
H708        H  0.69871112  0.28766065  0.13174364     0.34200
H709        H  0.82124763  0.27520378  0.03177653     0.26000
H710        H  0.73439521  0.33253303  0.18341552     0.32000
H711        H  0.71157728  0.30063314  0.22086062     0.37900
H712        H  0.79124855  0.20111972  0.03677082     0.32300
H713        H  0.76549955  0.14919169  0.11065210     0.31200
H714        H  0.73403680  0.15353762  0.16670531     0.32900
H715        H  0.70615524  0.20851667  0.22321702     0.31800
H716        H  0.83611709  0.24747306  0.10836949     0.35800
H717        H  0.84100254  0.25526065  0.18766577     0.28600
H718        H  0.67513391  0.25707913  0.02961081     0.32800
H719        H  0.66118811  0.25658791  0.20232349     0.35700
H720        H  0.75885540  0.16381218  0.07696675     0.28300
H721        H  0.82858424  0.26086876  0.22362692     0.41100
H722        H  0.78933616  0.32671670  0.08361712     0.31200
H723        H  0.79730954  0.29282914  0.03659128     0.38800
H724        H  0.68891915  0.20508556  0.19083797     0.30700
H725        H  0.74352766  0.35262813  0.15634141     0.30700
H726        H  0.66104447  0.25447184  0.06498948     0.31000
Zr727      Zr  0.71191603  0.25198565  0.58089653     2.17500
O728        O  0.66974004  0.24984637  0.55454205    -0.51400
O729        O  0.72510602  0.25276221  0.52096818    -0.74600
O730        O  0.69023714  0.29368894  0.57671460    -0.81400
O731        O  0.71200698  0.17939610  0.59838202    -0.83100
O732        O  0.71132931  0.32436974  0.60724225    -0.78700
O733        O  0.68754719  0.21186656  0.57781141    -0.90400
O734        O  0.76830116  0.25550702  0.51783462    -0.76300
O735        O  0.74703259  0.28117260  0.58203659    -0.85800
O736        O  0.74923605  0.22590934  0.57436189    -0.85500
O737        O  0.70928550  0.27346424  0.63541494    -0.72300
O738        O  0.71280554  0.22336478  0.62848082    -0.84400
Zr739      Zr  0.78394073  0.24900984  0.67859133     2.26400
Zr740      Zr  0.74523667  0.30198826  0.63698534     2.06300
Zr741      Zr  0.75047707  0.19812030  0.62289029     2.10000
Zr742      Zr  0.78422964  0.25517293  0.57601605     1.78800
O743        O  0.73752691  0.16097396  0.65639544    -0.93200
O744        O  0.80070823  0.29469447  0.55100406    -0.41000
O745        O  0.78598006  0.22706552  0.62418682    -0.77600
O746        O  0.78365706  0.27736698  0.62985531    -0.96300
O747        O  0.74610002  0.27385509  0.68511307    -0.89600
O748        O  0.74905030  0.21937997  0.67736257    -0.92500
C749        C  0.74611886  0.25426067  0.50408741     1.01300
C750        C  0.69151520  0.18804268  0.58466467     1.14200
C751        C  0.69296461  0.31687548  0.58787717     1.05000
O752        O  0.76377993  0.33932261  0.60898430    -0.94600
O753        O  0.77771217  0.32254815  0.67171459    -0.90400
O754        O  0.80431580  0.29097599  0.68978761    -0.83500
C755        C  0.79824956  0.31479689  0.68605238     1.11600
O756        O  0.66487344  0.24164603  0.67761450    -0.96600
Zr757      Zr  0.71118031  0.24446415  0.68234513     1.88900
O758        O  0.76970912  0.24457069  0.73845386    -0.73200
O759        O  0.72189817  0.32570897  0.68095486    -0.52500
O760        O  0.69021393  0.27969197  0.71279965    -0.97200
O761        O  0.69297557  0.20365349  0.70098161    -0.54400
O762        O  0.72654844  0.24070524  0.73948041    -0.73800
C763        C  0.74823023  0.24177142  0.75417640     0.98600
O764        O  0.82522827  0.24560643  0.70708633    -0.62600
O765        O  0.76845499  0.17077780  0.57807564    -0.57400
O766        O  0.80936449  0.20960832  0.67663427    -0.94100
O767        O  0.78726193  0.17805592  0.64897121    -0.92500
O768        O  0.80713771  0.22021288  0.54782046    -0.92800
O769        O  0.83037940  0.25871668  0.58220759    -0.91600
C770        C  0.80656002  0.18629516  0.66600491     1.17400
H771        H  0.74888146  0.21588572  0.55349054     0.33400
H772        H  0.79840884  0.28849663  0.62911832     0.44200
H773        H  0.75046623  0.20697100  0.69551102     0.37700
H774        H  0.69345782  0.28276313  0.63797662     0.34200
H775        H  0.80953795  0.28909249  0.52982216     0.26000
H776        H  0.72671156  0.34392720  0.67740025     0.32000
H777        H  0.69176892  0.27562757  0.73738022     0.37900
H778        H  0.80641068  0.20580122  0.56420073     0.32300
H779        H  0.77045109  0.15373710  0.58888336     0.31200
H780        H  0.73686580  0.14650113  0.63981262     0.32900
H781        H  0.70722115  0.19431566  0.71184380     0.31800
H782        H  0.83371923  0.25357436  0.60610656     0.35800
H783        H  0.83760268  0.25479846  0.69235024     0.28600
H784        H  0.67015711  0.26195004  0.53511329     0.32800
H785        H  0.65844606  0.24046409  0.70137958     0.35700
H786        H  0.75448619  0.16827502  0.56137375     0.28300
H787        H  0.82388632  0.25621120  0.72814629     0.41100
H788        H  0.77977606  0.33284558  0.59852595     0.31200
H789        H  0.78540094  0.30394053  0.54287117     0.38800
H790        H  0.68963351  0.19394492  0.67956897     0.30700
H791        H  0.70373951  0.32471298  0.67408335     0.30700
H792        H  0.65776065  0.25757553  0.57132977     0.31000
Zr793      Zr  0.49820442  0.46233481  0.05220127     2.17500
O794        O  0.49302632  0.42113994  0.08099077    -0.51400
O795        O  0.50107494  0.47556716  0.11209818    -0.74600
O796        O  0.53836944  0.43791657  0.05559936    -0.81400
O797        O  0.42574146  0.46783101  0.03987354    -0.83100
O798        O  0.56963133  0.46100197  0.02940338    -0.78700
O799        O  0.45706379  0.44008533  0.05540796    -0.90400
O800        O  0.50412253  0.51904737  0.11593353    -0.76300
O801        O  0.52708541  0.49783740  0.05338339    -0.85800
O802        O  0.47269690  0.50023361  0.05839908    -0.85500
O803        O  0.52089186  0.46002669  0.99863886    -0.72300
O804        O  0.47039173  0.46352901  0.00360274    -0.84400
Zr805      Zr  0.49747622  0.53513163  0.95542325     2.26400
Zr806      Zr  0.54924975  0.49641244  0.99971053     2.06300
Zr807      Zr  0.44610801  0.50223824  0.00874351     2.10000
Zr808      Zr  0.50150940  0.53558370  0.05842096     1.78800
O809        O  0.40853480  0.48519208  0.97981005    -0.93200
O810        O  0.54004277  0.55465056  0.08269228    -0.41000
O811        O  0.47472235  0.53809719  0.00889529    -0.77600
O812        O  0.52436703  0.53497669  0.00562692    -0.96300
O813        O  0.52239595  0.49703360  0.95025495    -0.89600
O814        O  0.46808748  0.50006831  0.95504833    -0.92500
C815        C  0.50325439  0.49662313  0.12923668     1.01300
C816        C  0.43348519  0.44635405  0.05183056     1.14200
C817        C  0.56173438  0.44142777  0.04633229     1.05000
O818        O  0.58457485  0.51363265  0.03326996    -0.94600
O819        O  0.57026823  0.53084747  0.96832959    -0.90400
O820        O  0.53872307  0.55607382  0.94711599    -0.83500
C821        C  0.56228312  0.55117954  0.95324595     1.11600
O822        O  0.48837250  0.41562625  0.95747464    -0.96600
Zr823      Zr  0.49297201  0.46199980  0.95077904     1.88900
O824        O  0.49717012  0.52126710  0.89504215    -0.73200
O825        O  0.57633560  0.47513706  0.95753656    -0.52500
O826        O  0.52726156  0.43908491  0.92147205    -0.97200
O827        O  0.45313735  0.44554274  0.92684009    -0.54400
O828        O  0.49465418  0.47770446  0.89347149    -0.73800
C829        C  0.49618005  0.49956881  0.87897125     0.98600
O830        O  0.49418450  0.57708644  0.92796392    -0.62600
O831        O  0.42064483  0.52707787  0.04943848    -0.57400
O832        O  0.45756174  0.55921827  0.95192413    -0.94100
O833        O  0.42576722  0.53428859  0.97345547    -0.92500
O834        O  0.46469360  0.55625446  0.08494393    -0.92800
O835        O  0.50379868  0.58239702  0.05690438    -0.91600
C836        C  0.43390144  0.55416312  0.95757227     1.17400
H837        H  0.46246753  0.49978359  0.07896237     0.33400
H838        H  0.53514901  0.54999221  0.00734857     0.44200
H839        H  0.45628466  0.50133786  0.93619559     0.37700
H840        H  0.53006626  0.44409442  0.99563049     0.34200
H841        H  0.53489034  0.56092578  0.10565082     0.26000
H842        H  0.59311889  0.47346793  0.96887796     0.32000
H843        H  0.51930636  0.43161186  0.90070915     0.37900
H844        H  0.46306764  0.54829706  0.10775363     0.32300
H845        H  0.40596983  0.53348845  0.03609743     0.31200
H846        H  0.39389330  0.49135946  0.99365256     0.32900
H847        H  0.45072219  0.45487983  0.90513757     0.31800
H848        H  0.50229492  0.58669285  0.03237673     0.35800
H849        H  0.50311100  0.58947505  0.94318299     0.28600
H850        H  0.50519744  0.42148361  0.10031306     0.32800
H851        H  0.48609674  0.40852919  0.93411994     0.35700
H852        H  0.41310054  0.51416813  0.06499049     0.28300
H853        H  0.50488206  0.57601234  0.90710772     0.41100
H854        H  0.58060129  0.53212433  0.03635171     0.31200
H855        H  0.55134120  0.53984387  0.08730979     0.38800
H856        H  0.43964813  0.45232094  0.94218218     0.30700
H857        H  0.56968014  0.45731322  0.95616233     0.30700
H858        H  0.49978741  0.40797339  0.06495095     0.31000
Zr859      Zr  0.49710088  0.46506000  0.55305473     2.17500
O860        O  0.49262660  0.42343224  0.58103943    -0.51400
O861        O  0.49536764  0.47952492  0.61320846    -0.74600
O862        O  0.53792338  0.44256689  0.56098034    -0.81400
O863        O  0.42635751  0.46383315  0.52754092    -0.83100
O864        O  0.56978069  0.46807593  0.54081930    -0.78700
O865        O  0.45740152  0.44060046  0.55350424    -0.90400
O866        O  0.49481426  0.52317449  0.61453467    -0.76300
O867        O  0.52403243  0.50190561  0.55673381    -0.85800
O868        O  0.46953100  0.50163288  0.55479404    -0.85500
O869        O  0.52272569  0.46310162  0.50177192    -0.72300
O870        O  0.47289910  0.46447432  0.50074938    -0.84400
Zr871      Zr  0.49963831  0.53755459  0.45598781     2.26400
Zr872      Zr  0.54947754  0.50035155  0.50582128     2.06300
Zr873      Zr  0.44604611  0.50156280  0.50246008     2.10000
Zr874      Zr  0.49653177  0.53844538  0.55731221     1.78800
O875        O  0.41188042  0.48467112  0.46651627    -0.93200
O876        O  0.53244881  0.55915792  0.58581186    -0.41000
O877        O  0.47273267  0.53876344  0.50563704    -0.77600
O878        O  0.52362566  0.53841429  0.50841938    -0.96300
O879        O  0.52620990  0.50048046  0.45326986    -0.89600
O880        O  0.47171615  0.50126596  0.45172090    -0.92500
C881        C  0.49448989  0.50132623  0.62908886     1.01300
C882        C  0.43431810  0.44394603  0.54355473     1.14200
C883        C  0.56163495  0.44787789  0.55597060     1.05000
O884        O  0.58313652  0.51918789  0.54075824    -0.94600
O885        O  0.57139918  0.53338638  0.47411929    -0.90400
O886        O  0.54110068  0.55884652  0.45037812    -0.83500
C887        C  0.56433002  0.55336684  0.45772454     1.11600
O888        O  0.49886219  0.41752609  0.45534685    -0.96600
Zr889      Zr  0.49841051  0.46426704  0.45002653     1.88900
O890        O  0.50145355  0.52429384  0.39602851    -0.73200
O891        O  0.57861490  0.47757521  0.46760529    -0.52500
O892        O  0.53604879  0.44485392  0.42379070    -0.97200
O893        O  0.46120098  0.44453715  0.42298728    -0.54400
O894        O  0.49957116  0.48070879  0.39233482    -0.73800
C895        C  0.50106034  0.50309856  0.37894307     0.98600
O896        O  0.49765981  0.58022701  0.43041817    -0.62600
O897        O  0.41657473  0.52164236  0.54289120    -0.57400
O898        O  0.45995162  0.56160998  0.45075904    -0.94100
O899        O  0.42736018  0.53671517  0.47045470    -0.92500
O900        O  0.45879778  0.55739685  0.58378836    -0.92800
O901        O  0.49464766  0.58497085  0.55087354    -0.91600
C902        C  0.43615863  0.55696380  0.45587139     1.17400
H903        H  0.45810696  0.50089900  0.57419450     0.33400
H904        H  0.53405574  0.55364466  0.51085036     0.44200
H905        H  0.46104759  0.50236741  0.43168525     0.37700
H906        H  0.53276883  0.44759230  0.50031662     0.34200
H907        H  0.52478236  0.56821686  0.60567120     0.26000
H908        H  0.59585923  0.48208343  0.47608321     0.32000
H909        H  0.54507828  0.45923891  0.41248997     0.37900
H910        H  0.46518036  0.56605445  0.60473627     0.32300
H911        H  0.40058666  0.52395543  0.52984273     0.31200
H912        H  0.39626797  0.48597870  0.48074983     0.32900
H913        H  0.45320467  0.45840949  0.40954539     0.31800
H914        H  0.50155092  0.58820005  0.52771347     0.35800
H915        H  0.50505743  0.59220547  0.44756790     0.28600
H916        H  0.50403354  0.42404610  0.60117687     0.32800
H917        H  0.49897460  0.41068605  0.43165543     0.35700
H918        H  0.41243373  0.50807838  0.55966623     0.28300
H919        H  0.50990893  0.58011688  0.41109419     0.41100
H920        H  0.57494621  0.53400381  0.55237705     0.31200
H921        H  0.54215241  0.54481907  0.59600467     0.38800
H922        H  0.44908900  0.44143061  0.44199449     0.30700
H923        H  0.57650785  0.45914099  0.47321041     0.30700
H924        H  0.50044862  0.41067516  0.56527981     0.31000
Zr925      Zr  0.00033727  0.53271537  0.30215095     2.17500
O926        O  0.00301324  0.57164626  0.33738269    -0.51400
O927        O  0.99822302  0.51653325  0.36118284    -0.74600
O928        O  0.95954192  0.55496650  0.30751507    -0.81400
O929        O  0.07189190  0.53462109  0.28331071    -0.83100
O930        O  0.92835617  0.53102812  0.28243764    -0.78700
O931        O  0.03928380  0.55838954  0.30524205    -0.90400
O932        O  0.99459294  0.47306109  0.36031852    -0.76300
O933        O  0.97263601  0.49647936  0.30042027    -0.85800
O934        O  0.02732456  0.49587986  0.30457526    -0.85500
O935        O  0.97771129  0.53629274  0.24862891    -0.72300
O936        O  0.02727974  0.53477812  0.25233772    -0.84400
Zr937      Zr  0.00299428  0.46288993  0.20048430     2.26400
Zr938      Zr  0.95030648  0.49931044  0.24718243     2.06300
Zr939      Zr  0.05360223  0.49739893  0.25442540     2.10000
Zr940      Zr  0.99950320  0.45961884  0.30199063     1.78800
O941        O  0.08973420  0.51437149  0.22230697    -0.93200
O942        O  0.96064764  0.43904254  0.32263749    -0.41000
O943        O  0.02659284  0.46025513  0.25284616    -0.77600
O944        O  0.97581963  0.46103213  0.25016927    -0.96300
O945        O  0.97679371  0.50026415  0.19720385    -0.89600
O946        O  0.03115372  0.49911728  0.20124343    -0.92500
C947        C  0.99560770  0.49463269  0.37602398     1.01300
C948        C  0.06297080  0.55480696  0.29819841     1.14200
C949        C  0.93612674  0.55057877  0.29976944     1.05000
O950        O  0.91489620  0.47871559  0.27690331    -0.94600
O951        O  0.93062097  0.46777899  0.20946363    -0.90400
O952        O  0.96205286  0.44138473  0.18987244    -0.83500
C953        C  0.93845006  0.44740400  0.19402889     1.11600
O954        O  0.00401123  0.58311401  0.20453331    -0.96600
Zr955      Zr  0.00487255  0.53635069  0.19922693     1.88900
O956        O  0.00483931  0.47816593  0.14185953    -0.73200
O957        O  0.92294857  0.52415174  0.20956416    -0.52500
O958        O  0.96932542  0.55738559  0.17069203    -0.97200
O959        O  0.04475583  0.55558802  0.17947125    -0.54400
O960        O  0.00676323  0.52176552  0.14041083    -0.73800
C961        C  0.00609319  0.49960541  0.12588508     0.98600
O962        O  0.00705679  0.42151118  0.17091097    -0.62600
O963        O  0.08180054  0.47776855  0.29616801    -0.57400
O964        O  0.04289083  0.43887306  0.19651888    -0.94100
O965        O  0.07384190  0.46330266  0.22145390    -0.92500
O966        O  0.03586791  0.44017252  0.33068873    -0.92800
O967        O  0.00069503  0.41310226  0.29460985    -0.91600
C968        C  0.06626233  0.44357130  0.20432767     1.17400
H969        H  0.03759288  0.49597129  0.32505410     0.33400
H970        H  0.96516909  0.44586863  0.25056113     0.44200
H971        H  0.04301170  0.49845598  0.18230713     0.37700
H972        H  0.96797754  0.55199700  0.24726202     0.34200
H973        H  0.96589560  0.42964442  0.34337851     0.26000
H974        H  0.90556935  0.52208636  0.21918465     0.32000
H975        H  0.96171313  0.54398173  0.15574227     0.37900
H976        H  0.03657681  0.44825958  0.35365466     0.32300
H977        H  0.08230055  0.45931058  0.28976363     0.31200
H978        H  0.10501410  0.50849118  0.23485603     0.32900
H979        H  0.05222651  0.54286221  0.16339701     0.31800
H980        H  0.99918182  0.41036241  0.26962158     0.35800
H981        H  0.99819877  0.40874016  0.18543530     0.28600
H982        H  0.99047020  0.56930688  0.35609774     0.32800
H983        H  0.00758705  0.58971049  0.18131571     0.35700
H984        H  0.09903041  0.48433907  0.29041814     0.28300
H985        H  0.99653619  0.42279848  0.14999854     0.41100
H986        H  0.91853723  0.46004964  0.27552630     0.31200
H987        H  0.94996919  0.45336290  0.33136513     0.38800
H988        H  0.05616632  0.55528918  0.19960033     0.30700
H989        H  0.92740448  0.54237054  0.21421209     0.30700
H990        H  0.99600478  0.58571431  0.32329971     0.31000
Zr991      Zr  0.99848503  0.53822721  0.79975279     2.17500
O992        O  0.00120126  0.58106745  0.82553426    -0.51400
O993        O  0.00193150  0.52584519  0.85945103    -0.74600
O994        O  0.95679888  0.55839969  0.80886926    -0.81400
O995        O  0.06853752  0.54216795  0.77231958    -0.83100
O996        O  0.92532777  0.53263956  0.78786068    -0.78700
O997        O  0.03717428  0.56438235  0.79976833    -0.90400
O998        O  0.00319880  0.48232901  0.86317247    -0.76300
O999        O  0.97328700  0.50028803  0.80550517    -0.85800
O1000       O  0.02766775  0.50303801  0.80129413    -0.85500
O1001       O  0.97158238  0.53753126  0.75005923    -0.72300
O1002       O  0.02170821  0.53951878  0.74697237    -0.84400
Zr1003     Zr  0.99735573  0.46392780  0.70314603     2.26400
Zr1004     Zr  0.94680651  0.49897459  0.75562451     2.06300
Zr1005     Zr  0.04977602  0.50355873  0.74784371     2.10000
Zr1006     Zr  0.00243756  0.46513779  0.80580981     1.78800
O1007       O  0.07961678  0.52089383  0.70602226    -0.93200
O1008       O  0.96734054  0.44389140  0.83537779    -0.41000
O1009       O  0.02487647  0.46508185  0.75247930    -0.77600
O1010       O  0.97494418  0.46251219  0.75728399    -0.96300
O1011       O  0.96900434  0.49967451  0.70196851    -0.89600
O1012       O  0.02325191  0.50161303  0.69827333    -0.92500
C1013       C  0.00302700  0.50488960  0.87649148     1.01300
C1014       C  0.06026085  0.56170939  0.78925330     1.14200
C1015       C  0.93322167  0.55322772  0.80277149     1.05000
O1016       O  0.91594134  0.48014235  0.79487672    -0.94600
O1017       O  0.92554864  0.46334992  0.72738435    -0.90400
O1018       O  0.95677045  0.43955616  0.70198338    -0.83500
C1019       C  0.93342109  0.44326412  0.71135899     1.11600
O1020       O  0.99225941  0.58402977  0.70266503    -0.96600
Zr1021     Zr  0.99501365  0.53732036  0.69794374     1.88900
O1022       O  0.99550396  0.47761808  0.64272053    -0.73200
O1023       O  0.91577264  0.51811096  0.71722165    -0.52500
O1024       O  0.95633578  0.55431543  0.67215826    -0.97200
O1025       O  0.03133812  0.55850713  0.67084891    -0.54400
O1026       O  0.99551274  0.52123922  0.64069905    -0.73800
C1027       C  0.99551932  0.49910601  0.62641217     0.98600
O1028       O  0.00089644  0.42380199  0.67067558    -0.62600
O1029       O  0.08329059  0.48926340  0.78630390    -0.57400
O1030       O  0.03825955  0.44100761  0.69997316    -0.94100
O1031       O  0.06973006  0.46799394  0.71832714    -0.92500
O1032       O  0.04176878  0.44864007  0.83037532    -0.92800
O1033       O  0.00605737  0.41839468  0.80320802    -0.91600
C1034       C  0.06189004  0.44683941  0.70495050     1.17400
H1035       H  0.03952162  0.50473671  0.82006362     0.33400
H1036       H  0.96564456  0.44669290  0.76073125     0.44200
H1037       H  0.03373091  0.50086347  0.67794798     0.37700
H1038       H  0.96085459  0.55252579  0.74841277     0.34200
H1039       H  0.97469230  0.43825586  0.85737502     0.26000
H1040       H  0.89897548  0.51253373  0.72619219     0.32000
H1041       H  0.94743108  0.53908615  0.66254350     0.37900
H1042       H  0.03670427  0.44190753  0.85302362     0.32300
H1043       H  0.08083730  0.47042168  0.78799392     0.31200
H1044       H  0.09643700  0.52049889  0.71749107     0.32900
H1045       H  0.04019264  0.54487135  0.65762987     0.31800
H1046       H  0.01580296  0.41486072  0.78197109     0.35800
H1047       H  0.99487446  0.41008436  0.68619467     0.28600
H1048       H  0.99062590  0.58046558  0.84652611     0.32800
H1049       H  0.99279981  0.59043357  0.67889658     0.35700
H1050       H  0.09931152  0.49131178  0.77310769     0.28300
H1051       H  0.98774811  0.42478660  0.65259090     0.41100
H1052       H  0.92097580  0.46185264  0.79667436     0.31200
H1053       H  0.95554459  0.45798734  0.84178515     0.38800
H1054       H  0.04312985  0.56264945  0.68986059     0.30700
H1055       H  0.91646188  0.53683255  0.72204990     0.30700
H1056       H  0.99198813  0.59268757  0.80986938     0.31000
C1057       C  0.99693083  0.51187856  0.52985736     0.15900
C1058       C  0.99756165  0.52330605  0.49752394    -0.33100
C1059       C  0.99555281  0.50711995  0.46889579     0.20300
C1060       C  0.99306471  0.48069301  0.47240170     0.02500
C1061       C  0.99245617  0.46923829  0.50481121    -0.22800
C1062       C  0.99443708  0.48545985  0.53351471     0.11700
S1063       S  0.99877434  0.52839706  0.56737838    -0.06500
C1064       C  0.99590202  0.49951439  0.58865207    -0.10000
C1065       C  0.99396807  0.47815276  0.56731600    -0.26600
S1066       S  0.99130555  0.46436522  0.43456724    -0.03800
C1067       C  0.99413654  0.49343039  0.41367925    -0.17200
C1068       C  0.99608453  0.51459300  0.43527476    -0.15200
H1069       H  0.99952148  0.54394319  0.49482186     0.20100
H1070       H  0.99052128  0.44860297  0.50750821     0.16200
H1071       H  0.99205969  0.45850158  0.57598163     0.18700
H1072       H  0.99821042  0.53429304  0.42687444     0.12000
C1073       C  0.00452031  0.48675770  0.02925056     0.15900
C1074       C  0.00306056  0.47580551  0.99654211    -0.33100
C1075       C  0.00373550  0.49247434  0.96860639     0.20300
C1076       C  0.00561548  0.51891931  0.97290909     0.02500
C1077       C  0.00695394  0.52991352  0.00570005    -0.22800
C1078       C  0.00641143  0.51319349  0.03371110     0.11700
S1079       S  0.00409665  0.46970978  0.06628498    -0.06500
C1080       C  0.00638301  0.49847374  0.08824846    -0.10000
C1081       C  0.00750115  0.52006389  0.06758551    -0.26600
S1082       S  0.00621768  0.53573090  0.93555102    -0.03800
C1083       C  0.00398509  0.50676720  0.91399482    -0.17200
C1084       C  0.00282112  0.48538796  0.93492176    -0.15200
H1085       H  0.00155987  0.45516742  0.99301400     0.20100
H1086       H  0.00843000  0.55055110  0.00921760     0.16200
H1087       H  0.00880614  0.53971678  0.07683433     0.18700
H1088       H  0.00129821  0.46566711  0.92597569     0.12000
C1089       C  0.49678558  0.48536658  0.78258701     0.15900
C1090       C  0.49727910  0.47349237  0.75029582    -0.33100
C1091       C  0.49465178  0.48923897  0.72166951     0.20300
C1092       C  0.49132569  0.51560268  0.72522967     0.02500
C1093       C  0.49085338  0.52748703  0.75753656    -0.22800
C1094       C  0.49386607  0.51177589  0.78617971     0.11700
S1095       S  0.49949371  0.46946632  0.82013970    -0.06500
C1096       C  0.49674928  0.49862854  0.84125906    -0.10000
C1097       C  0.49408909  0.51962457  0.81988142    -0.26600
S1098       S  0.48883302  0.53147280  0.68760973    -0.03800
C1099       C  0.49291972  0.50238849  0.66664590    -0.17200
C1100       C  0.49550078  0.48145403  0.68802491    -0.15200
H1101       H  0.49977769  0.45289388  0.74762732     0.20100
H1102       H  0.48844877  0.54809692  0.76018125     0.16200
H1103       H  0.49191937  0.53935842  0.82846435     0.18700
H1104       H  0.49842588  0.46180916  0.67948888     0.12000
C1105       C  0.50752767  0.51551805  0.28247424     0.15900
C1106       C  0.51074449  0.52596655  0.24981364    -0.33100
C1107       C  0.50767651  0.50940316  0.22163079     0.20300
C1108       C  0.50203195  0.48352547  0.22574145     0.02500
C1109       C  0.49898180  0.47305206  0.25838225    -0.22800
C1110       C  0.50173026  0.48967198  0.28653286     0.11700
S1111       S  0.50964634  0.53250019  0.31993265    -0.06500
C1112       C  0.50259237  0.50446033  0.34132894    -0.10000
C1113       C  0.49890868  0.48321558  0.32019236    -0.26600
S1114       S  0.49856244  0.46675824  0.18834795    -0.03800
C1115       C  0.50439014  0.49498929  0.16682328    -0.17200
C1116       C  0.50907068  0.51610240  0.18787748    -0.15200
H1117       H  0.51507007  0.54618419  0.24649911     0.20100
H1118       H  0.49432422  0.45290596  0.26168074     0.16200
H1119       H  0.49425652  0.46404889  0.32897953     0.18700
H1120       H  0.51291009  0.53541833  0.17897394     0.12000
C1121       C  0.83939010  0.37460424  0.70360394     0.15900
C1122       C  0.84888083  0.39979268  0.70656376    -0.33100
C1123       C  0.87546498  0.40321093  0.70547874     0.20300
C1124       C  0.89187395  0.38249908  0.70161859     0.02500
C1125       C  0.88238135  0.35728149  0.69914033    -0.22800
C1126       C  0.85580271  0.35383746  0.70025491     0.11700
S1127       S  0.80779097  0.36661031  0.70164516    -0.06500
C1128       C  0.81670892  0.33488347  0.69633362    -0.10000
C1129       C  0.84290185  0.33094608  0.69654332    -0.26600
S1130       S  0.92349420  0.39073331  0.70057456    -0.03800
C1131       C  0.91460427  0.42244876  0.70563260    -0.17200
C1132       C  0.88838248  0.42614969  0.70802768    -0.15200
H1133       H  0.83609310  0.41604557  0.70906888     0.20100
H1134       H  0.89515091  0.34107229  0.69605699     0.16200
H1135       H  0.85203558  0.31254931  0.69205664     0.18700
H1136       H  0.87926645  0.44462912  0.71193440     0.12000
C1137       C  0.63348929  0.35702149  0.56590892     0.15900
C1138       C  0.60916063  0.36566567  0.55633247    -0.33100
C1139       C  0.60265600  0.39122138  0.56436074     0.20300
C1140       C  0.61974315  0.40752008  0.58080987     0.02500
C1141       C  0.64394141  0.39879414  0.59066871    -0.22800
C1142       C  0.65037977  0.37320498  0.58287403     0.11700
S1143       S  0.64490656  0.32662462  0.55904248    -0.06500
C1144       C  0.67270323  0.33564271  0.57956082    -0.10000
C1145       C  0.67287238  0.36108289  0.59078607    -0.26600
S1146       S  0.60901481  0.43832852  0.58605037    -0.03800
C1147       C  0.58101082  0.42909552  0.56646046    -0.17200
C1148       C  0.58021089  0.40343692  0.55645586    -0.15200
H1149       H  0.59591614  0.35304639  0.54312777     0.20100
H1150       H  0.65726361  0.41147919  0.60361223     0.16200
H1151       H  0.68836330  0.37006823  0.60478591     0.18700
H1152       H  0.56461687  0.39461083  0.54247791     0.12000
C1153       C  0.73455699  0.23863568  0.85039917     0.15900
C1154       C  0.72295112  0.23850695  0.88272781    -0.33100
C1155       C  0.73880649  0.24107872  0.91130514     0.20300
C1156       C  0.76507878  0.24325848  0.90768476     0.02500
C1157       C  0.77673076  0.24281169  0.87539066    -0.22800
C1158       C  0.76084332  0.24064421  0.84679062     0.11700
S1159       S  0.71842733  0.23763822  0.81282204    -0.06500
C1160       C  0.74735682  0.23999981  0.79175455    -0.10000
C1161       C  0.76838968  0.24125165  0.81311327    -0.26600
S1162       S  0.78098397  0.24716478  0.94512350    -0.03800
C1163       C  0.75196949  0.24583923  0.96615217    -0.17200
C1164       C  0.73110387  0.24244193  0.94489703    -0.15200
H1165       H  0.70241157  0.23713081  0.88542677     0.20100
H1166       H  0.79722871  0.24471056  0.87266946     0.16200
H1167       H  0.78797861  0.24313024  0.80455830     0.18700
H1168       H  0.71148021  0.24107075  0.95347729     0.12000
C1169       C  0.76521933  0.25514428  0.35065462     0.15900
C1170       C  0.77587900  0.25658391  0.38343405    -0.33100
C1171       C  0.75920535  0.25531275  0.41149672     0.20300
C1172       C  0.73305702  0.25275275  0.40717586     0.02500
C1173       C  0.72237651  0.25131704  0.37436879    -0.22800
C1174       C  0.73907186  0.25258574  0.34630875     0.11700
S1175       S  0.78221268  0.25642852  0.31337932    -0.06500
C1176       C  0.75377075  0.25367347  0.29160666    -0.10000
C1177       C  0.73238322  0.25169544  0.31248323    -0.26600
S1178       S  0.71616356  0.25145140  0.44456361    -0.03800
C1179       C  0.74465685  0.25428003  0.46634055    -0.17200
C1180       C  0.76596896  0.25621120  0.44532137    -0.15200
H1181       H  0.79629062  0.25859852  0.38691810     0.20100
H1182       H  0.70196372  0.24930733  0.37086600     0.16200
H1183       H  0.71294605  0.24979443  0.30340200     0.18700
H1184       H  0.78543310  0.25806523  0.45430098     0.12000
C1185       C  0.86748131  0.35608383  0.18442103     0.15900
C1186       C  0.89284086  0.36440018  0.18794697    -0.33100
C1187       C  0.89805404  0.39053814  0.18242123     0.20300
C1188       C  0.87881347  0.40762872  0.17399233     0.02500
C1189       C  0.85357434  0.39919919  0.16970228    -0.22800
C1190       C  0.84839491  0.37307194  0.17512207     0.11700
S1191       S  0.85722631  0.32522020  0.19014801    -0.06500
C1192       C  0.82696829  0.33513734  0.17904999    -0.10000
C1193       C  0.82512389  0.36117562  0.17191335    -0.26600
S1194       S  0.88839237  0.43897888  0.17225015    -0.03800
C1195       C  0.91870206  0.42904001  0.18280639    -0.17200
C1196       C  0.92116048  0.40264987  0.18675224    -0.15200
H1197       H  0.90777530  0.35115611  0.19518938     0.20100
H1198       H  0.83853832  0.41252613  0.16311112     0.16200
H1199       H  0.80784877  0.37074000  0.16377680     0.18700
H1200       H  0.93841279  0.39312242  0.19505856     0.12000
C1201       C  0.65608760  0.37395401  0.05727866     0.15900
C1202       C  0.64633254  0.39868489  0.05180310    -0.33100
C1203       C  0.61980795  0.40202491  0.05424359     0.20300
C1204       C  0.60365394  0.38169826  0.06192318     0.02500
C1205       C  0.61338208  0.35682661  0.06680185    -0.22800
C1206       C  0.63993271  0.35344172  0.06413950     0.11700
S1207       S  0.68780862  0.36637843  0.05794060    -0.06500
C1208       C  0.67929731  0.33510301  0.06706736    -0.10000
C1209       C  0.65313948  0.33097762  0.06919458    -0.26600
S1210       S  0.57205262  0.38996120  0.06405043    -0.03800
C1211       C  0.58063770  0.42105549  0.05371663    -0.17200
C1212       C  0.60675255  0.42455531  0.04943201    -0.15200
H1213       H  0.65890491  0.41470482  0.04627188     0.20100
H1214       H  0.60083593  0.34086062  0.07268048     0.16200
H1215       H  0.64433858  0.31283621  0.07599758     0.18700
H1216       H  0.61571490  0.44259644  0.04253927     0.12000
C1217       C  0.83945114  0.62129309  0.81405452     0.15900
C1218       C  0.84874353  0.59599645  0.81200746    -0.33100
C1219       C  0.87532039  0.59257671  0.81182024     0.20300
C1220       C  0.89185344  0.61341600  0.81369509     0.02500
C1221       C  0.88256232  0.63869063  0.81497135    -0.22800
C1222       C  0.85601570  0.64214047  0.81502961     0.11700
S1223       S  0.80799685  0.62946160  0.81743306    -0.06500
C1224       C  0.81718275  0.66139579  0.81968032    -0.10000
C1225       C  0.84335798  0.66520518  0.81773975    -0.26600
S1226       S  0.92339231  0.60533558  0.81358263    -0.03800
C1227       C  0.91435419  0.57350097  0.81023295    -0.17200
C1228       C  0.88812314  0.56958177  0.80957298    -0.15200
H1229       H  0.83583411  0.57969618  0.81109824     0.20100
H1230       H  0.89548393  0.65496489  0.81623902     0.16200
H1231       H  0.85270718  0.68372914  0.82027908     0.18700
H1232       H  0.87894603  0.55099159  0.80672225     0.12000
C1233       C  0.65491981  0.62078881  0.94273820     0.15900
C1234       C  0.64601129  0.59546470  0.94604730    -0.33100
C1235       C  0.61959099  0.59135540  0.94405410     0.20300
C1236       C  0.60281991  0.61152802  0.93870117     0.02500
C1237       C  0.61170870  0.63687053  0.93571343    -0.22800
C1238       C  0.63809831  0.64102708  0.93808073     0.11700
S1239       S  0.68630405  0.62958794  0.94253207    -0.06500
C1240       C  0.67667802  0.66094289  0.93653678    -0.10000
C1241       C  0.65046137  0.66419836  0.93498548    -0.26600
S1242       S  0.57148062  0.60265992  0.93756546    -0.03800
C1243       C  0.58096289  0.57146437  0.94514833    -0.17200
C1244       C  0.60716047  0.56828914  0.94781004    -0.15200
H1245       H  0.65910011  0.57965845  0.94991304     0.20100
H1246       H  0.59861979  0.65266208  0.93175926     0.16200
H1247       H  0.64104230  0.68229821  0.92991426     0.18700
H1248       H  0.61654128  0.55024710  0.95332363     0.12000
C1249       C  0.76504714  0.75419899  0.65974779     0.15900
C1250       C  0.77554242  0.75405867  0.62676253    -0.33100
C1251       C  0.75863852  0.75326191  0.59897549     0.20300
C1252       C  0.73241016  0.75260538  0.60363941     0.02500
C1253       C  0.72188543  0.75266110  0.63667934    -0.22800
C1254       C  0.73882572  0.75349052  0.66449704     0.11700
S1255       S  0.78233707  0.75482646  0.69682185    -0.06500
C1256       C  0.75393854  0.75388191  0.71910530    -0.10000
C1257       C  0.73235135  0.75340205  0.69845827    -0.26600
S1258       S  0.71529753  0.75177596  0.56634750    -0.03800
C1259       C  0.74383645  0.75232825  0.54423347    -0.17200
C1260       C  0.76527074  0.75306606  0.56509654    -0.15200
H1261       H  0.79601669  0.75452161  0.62290436     0.20100
H1262       H  0.70141431  0.75205904  0.64054867     0.16200
H1263       H  0.71288392  0.75263068  0.70780568     0.18700
H1264       H  0.78480258  0.75337104  0.55594616     0.12000
C1265       C  0.73301056  0.74183021  0.10400951     0.15900
C1266       C  0.72330948  0.74022342  0.13730376    -0.33100
C1267       C  0.74085974  0.74087009  0.16434960     0.20300
C1268       C  0.76691649  0.74293489  0.15871977     0.02500
C1269       C  0.77662280  0.74451817  0.12541749    -0.22800
C1270       C  0.75906569  0.74393870  0.09837595     0.11700
S1271       S  0.71496205  0.74154395  0.06758442    -0.06500
C1272       C  0.74287460  0.74433229  0.04453267    -0.10000
C1273       C  0.76481103  0.74535046  0.06438355    -0.26600
S1274       S  0.78491667  0.74366627  0.19519506    -0.03800
C1275       C  0.75697625  0.74130278  0.21828565    -0.17200
C1276       C  0.73507376  0.73991081  0.19836719    -0.15200
H1277       H  0.70297808  0.73864022  0.14195420     0.20100
H1278       H  0.79694496  0.74622755  0.12077027     0.16200
H1279       H  0.78405975  0.74704065  0.05444486     0.18700
H1280       H  0.71578813  0.73860667  0.20828084     0.12000
C1281       C  0.89501027  0.60997234  0.31774301     0.15900
C1282       C  0.88573090  0.63512057  0.32146960    -0.33100
C1283       C  0.85916870  0.63851491  0.32166895     0.20300
C1284       C  0.84258992  0.61775832  0.31890762     0.02500
C1285       C  0.85188523  0.59266860  0.31457363    -0.22800
C1286       C  0.87843900  0.58930938  0.31382407     0.11700
S1287       S  0.92653130  0.60188480  0.31637875    -0.06500
C1288       C  0.91735673  0.57043054  0.30924403    -0.10000
C1289       C  0.89115051  0.56654565  0.30873110    -0.26600
S1290       S  0.81106094  0.62568279  0.32228437    -0.03800
C1291       C  0.82025228  0.65739010  0.32681526    -0.17200
C1292       C  0.84644178  0.66137762  0.32560692    -0.15200
H1293       H  0.89864458  0.65131850  0.32411241     0.20100
H1294       H  0.83897934  0.57646377  0.31200622     0.16200
H1295       H  0.88191285  0.54820012  0.30398707     0.18700
H1296       H  0.85570181  0.67987407  0.32904589     0.12000
C1297       C  0.62400488  0.59333542  0.44108395     0.15900
C1298       C  0.64912263  0.60200397  0.43715186    -0.33100
C1299       C  0.65348789  0.62853106  0.43944254     0.20300
C1300       C  0.63375861  0.64572735  0.44550464     0.02500
C1301       C  0.60852516  0.63706632  0.44910680    -0.22800
C1302       C  0.60412738  0.61048644  0.44658693     0.11700
S1303       S  0.61522352  0.56179283  0.44128296    -0.06500
C1304       C  0.58439219  0.57171739  0.44860860    -0.10000
C1305       C  0.58114744  0.59815599  0.45042112    -0.26600
S1306       S  0.64308734  0.67720940  0.44671055    -0.03800
C1307       C  0.67379896  0.66708536  0.43822434    -0.17200
C1308       C  0.67649029  0.64063457  0.43533222    -0.15200
H1309       H  0.66461912  0.58862592  0.43269079     0.20100
H1310       H  0.59304075  0.65043064  0.45370179     0.16200
H1311       H  0.56327225  0.60770313  0.45621367     0.18700
H1312       H  0.69417595  0.63082044  0.42929814     0.12000
C1313       C  0.60331787  0.88049466  0.44287127     0.15900
C1314       C  0.61282226  0.85587008  0.43538491    -0.33100
C1315       C  0.63943603  0.85275224  0.43451711     0.20300
C1316       C  0.65585595  0.87323875  0.44068993     0.02500
C1317       C  0.64636728  0.89764324  0.44912930    -0.22800
C1318       C  0.61979485  0.90074136  0.44999987     0.11700
S1319       S  0.57170365  0.88872685  0.44346460    -0.06500
C1320       C  0.58083301  0.91972113  0.45380406    -0.10000
C1321       C  0.60702439  0.92316155  0.45665541    -0.26600
S1322       S  0.68745073  0.86594997  0.43625884    -0.03800
C1323       C  0.67851621  0.83475429  0.42697653    -0.17200
C1324       C  0.65237068  0.83048994  0.42705491    -0.15200
H1325       H  0.60005893  0.83994878  0.42992422     0.20100
H1326       H  0.65913659  0.91364521  0.45415703     0.16200
H1327       H  0.61628851  0.94125325  0.46286732     0.18700
H1328       H  0.64333050  0.81220922  0.42127507     0.12000
C1329       C  0.62309234  0.09430598  0.56929297     0.15900
C1330       C  0.64778947  0.10364748  0.57537387    -0.33100
C1331       C  0.65148521  0.13035979  0.57466739     0.20300
C1332       C  0.63159157  0.14707483  0.56778619     0.02500
C1333       C  0.60677212  0.13774117  0.56228318    -0.22800
C1334       C  0.60297784  0.11100746  0.56347844     0.11700
S1335       S  0.61505224  0.06252057  0.56690695    -0.06500
C1336       C  0.58411608  0.07175103  0.55850642    -0.10000
C1337       C  0.58041424  0.09816124  0.55793100    -0.26600
S1338       S  0.64023633  0.17881421  0.56746106    -0.03800
C1339       C  0.67084778  0.16946575  0.57760919    -0.17200
C1340       C  0.67398720  0.14308059  0.58052036    -0.15200
H1341       H  0.66348762  0.09065086  0.58017267     0.20100
H1342       H  0.59113778  0.15072777  0.55712635     0.16200
H1343       H  0.56247811  0.10742509  0.55202512     0.18700
H1344       H  0.69176339  0.13369226  0.58693823     0.12000
C1345       C  0.49606801  0.02137886  0.77723565     0.15900
C1346       C  0.49751973  0.03218936  0.74453165    -0.33100
C1347       C  0.49353459  0.01581562  0.71636017     0.20300
C1348       C  0.48813333  0.98990134  0.72071557     0.02500
C1349       C  0.48633044  0.97917887  0.75338912    -0.22800
C1350       C  0.49058705  0.99547196  0.78148113     0.11700
S1351       S  0.50107030  0.03780838  0.81451184    -0.06500
C1352       C  0.49581635  0.00945409  0.83608712    -0.10000
C1353       C  0.49040706  0.98848516  0.81520945    -0.26600
S1354       S  0.48506923  0.97294325  0.68356893    -0.03800
C1355       C  0.49117507  0.00097574  0.66161745    -0.17200
C1356       C  0.49512406  0.02237839  0.68242519    -0.15200
H1357       H  0.50196315  0.05237732  0.74119479     0.20100
H1358       H  0.48224612  0.95891137  0.75673228     0.16200
H1359       H  0.48654281  0.96919821  0.82420578     0.18700
H1360       H  0.49957211  0.04149469  0.67328543     0.12000
C1361       C  0.50969171  0.98081134  0.21937787     0.15900
C1362       C  0.51001061  0.96972528  0.25201508    -0.33100
C1363       C  0.51000640  0.98638198  0.28045371     0.20300
C1364       C  0.51026864  0.01287113  0.27639892     0.02500
C1365       C  0.51027808  0.02393482  0.24382177    -0.22800
C1366       C  0.50971010  0.00731062  0.21547354     0.11700
S1367       S  0.50826848  0.96400339  0.18178034    -0.06500
C1368       C  0.50730053  0.99300219  0.16054865    -0.10000
C1369       C  0.50840411  0.01443733  0.18180689    -0.26600
S1370       S  0.50941987  0.02986054  0.31375636    -0.03800
C1371       C  0.50822411  0.00105386  0.33543034    -0.17200
C1372       C  0.50890400  0.97943021  0.31434595    -0.15200
H1373       H  0.50965440  0.94903882  0.25509798     0.20100
H1374       H  0.51011515  0.04462630  0.24072839     0.16200
H1375       H  0.50788505  0.03417521  0.17314905     0.18700
H1376       H  0.50820766  0.95976239  0.32324934     0.12000
C1377       C  0.59903988  0.88122860  0.94057536     0.15900
C1378       C  0.60760254  0.85561986  0.93772604    -0.33100
C1379       C  0.63413487  0.85128901  0.93858631     0.20300
C1380       C  0.65116172  0.87161079  0.94215489     0.02500
C1381       C  0.64261827  0.89698924  0.94544722    -0.22800
C1382       C  0.61628570  0.90130091  0.94451119     0.11700
S1383       S  0.56780156  0.89093052  0.93996825    -0.06500
C1384       C  0.57824592  0.92224333  0.94568099    -0.10000
C1385       C  0.60455176  0.92474031  0.94743509    -0.26600
S1386       S  0.68246500  0.86305901  0.94050859    -0.03800
C1387       C  0.67291576  0.83156725  0.93489362    -0.17200
C1388       C  0.64656293  0.82804839  0.93482696    -0.15200
H1389       H  0.59423192  0.83985538  0.93462450     0.20100
H1390       H  0.65599698  0.91278927  0.94818855     0.16200
H1391       H  0.61459958  0.94277028  0.95127769     0.18700
H1392       H  0.63708186  0.80975949  0.93063649     0.12000
C1393       C  0.60228096  0.11926973  0.05667636     0.15900
C1394       C  0.61160785  0.14448728  0.06065237    -0.33100
C1395       C  0.63801814  0.14768720  0.06520327     0.20300
C1396       C  0.65429432  0.12667873  0.06594853     0.02500
C1397       C  0.64507502  0.10161573  0.06121652    -0.22800
C1398       C  0.61877695  0.09843970  0.05647532     0.11700
S1399       S  0.57086474  0.11103563  0.05172729    -0.06500
C1400       C  0.58022856  0.07928902  0.04846935    -0.10000
C1401       C  0.60630012  0.07553456  0.05144717    -0.26600
S1402       S  0.68531015  0.13414532  0.07425875    -0.03800
C1403       C  0.67649886  0.16604427  0.07634146    -0.17200
C1404       C  0.65076242  0.17049418  0.07067513    -0.15200
H1405       H  0.59882901  0.16083334  0.06063577     0.20100
H1406       H  0.65782333  0.08524688  0.06168859     0.16200
H1407       H  0.61564310  0.05698838  0.04995379     0.18700
H1408       H  0.64175309  0.18921543  0.07183118     0.12000
C1409       C  0.15296489  0.63066316  0.80219974     0.15900
C1410       C  0.14347438  0.60604750  0.79534156    -0.33100
C1411       C  0.11711915  0.60232625  0.79787077     0.20300
C1412       C  0.10075696  0.62214830  0.80706631     0.02500
C1413       C  0.11025012  0.64701602  0.81359224    -0.22800
C1414       C  0.13676239  0.65079805  0.81076760     0.11700
S1415       S  0.18453418  0.63835414  0.80211208    -0.06500
C1416       C  0.17607425  0.66916088  0.81361308    -0.10000
C1417       C  0.14997557  0.67322668  0.81684316    -0.26600
S1418       S  0.06931454  0.61321870  0.80881808    -0.03800
C1419       C  0.07849466  0.58267162  0.79632190    -0.17200
C1420       C  0.10452005  0.57976221  0.79163447    -0.15200
H1421       H  0.15614683  0.59037851  0.78854308     0.20100
H1422       H  0.09760075  0.66262873  0.82068205     0.16200
H1423       H  0.14129203  0.69124517  0.82460361     0.18700
H1424       H  0.11376557  0.56207489  0.78367740     0.12000
C1425       C  0.36861599  0.64718202  0.92650022     0.15900
C1426       C  0.39275765  0.63811085  0.93591940    -0.33100
C1427       C  0.39646051  0.61139759  0.93626788     0.20300
C1428       C  0.37694791  0.59443017  0.92781140     0.02500
C1429       C  0.35298097  0.60351435  0.91759341    -0.22800
C1430       C  0.34930853  0.63025024  0.91717406     0.11700
S1431       S  0.36003159  0.67885119  0.92567350    -0.06500
C1432       C  0.33017797  0.66927485  0.91204393    -0.10000
C1433       C  0.32726204  0.64281510  0.90861109    -0.26600
S1434       S  0.38466736  0.56274722  0.93250502    -0.03800
C1435       C  0.41461195  0.57247982  0.94551991    -0.17200
C1436       C  0.41829166  0.59888829  0.94586168    -0.15200
H1437       H  0.40787378  0.65128979  0.94319975     0.20100
H1438       H  0.33772366  0.59032408  0.91089429     0.16200
H1439       H  0.30990628  0.63326968  0.90037804     0.18700
H1440       H  0.43565635  0.60842303  0.95408007     0.12000
C1441       C  0.37482568  0.91105125  0.92560836     0.15900
C1442       C  0.34992711  0.90187972  0.92059763    -0.33100
C1443       C  0.34614197  0.87517232  0.92123326     0.20300
C1444       C  0.36616054  0.85839479  0.92723399     0.02500
C1445       C  0.39107746  0.86755194  0.93193352    -0.22800
C1446       C  0.39495535  0.89420457  0.93057107     0.11700
S1447       S  0.38318774  0.94276092  0.92745065    -0.06500
C1448       C  0.41422660  0.93319842  0.93421228    -0.10000
C1449       C  0.41771843  0.90680260  0.93496588    -0.26600
S1450       S  0.35767796  0.82671694  0.92723241    -0.03800
C1451       C  0.32689718  0.83604854  0.91816931    -0.17200
C1452       C  0.32354115  0.86245252  0.91583335    -0.15200
H1453       H  0.33420814  0.91497777  0.91644118     0.20100
H1454       H  0.40676296  0.85446595  0.93636429     0.16200
H1455       H  0.43565860  0.89739709  0.94048568     0.18700
H1456       H  0.30565990  0.87179922  0.90984491     0.12000
C1457       C  0.23468920  0.75276976  0.64130526     0.15900
C1458       C  0.22442702  0.75250786  0.60826000    -0.33100
C1459       C  0.24153660  0.75382027  0.58064280     0.20300
C1460       C  0.26768926  0.75552185  0.58552352     0.02500
C1461       C  0.27794448  0.75589098  0.61856118    -0.22800
C1462       C  0.26084589  0.75436150  0.64617474     0.11700
S1463       S  0.21726519  0.75110057  0.67833578    -0.06500
C1464       C  0.24556818  0.75247438  0.70065300    -0.10000
C1465       C  0.26717423  0.75414409  0.68005964    -0.26600
S1466       S  0.28516562  0.75654804  0.54852818    -0.03800
C1467       C  0.25689896  0.75455605  0.52622993    -0.17200
C1468       C  0.23525265  0.75327889  0.54674986    -0.15200
H1469       H  0.20402026  0.75115274  0.60422671     0.20100
H1470       H  0.29836159  0.75710641  0.62258157     0.16200
H1471       H  0.28659786  0.75525419  0.68940643     0.18700
H1472       H  0.21586239  0.75181580  0.53735844     0.12000
C1473       C  0.26959428  0.75342852  0.08553980     0.15900
C1474       C  0.27950789  0.75623109  0.11863063    -0.33100
C1475       C  0.26263310  0.75295857  0.14625877     0.20300
C1476       C  0.23701736  0.74736383  0.14127533     0.02500
C1477       C  0.22713109  0.74456621  0.10823552    -0.22800
C1478       C  0.24400921  0.74765148  0.08066431     0.11700
S1479       S  0.28676998  0.75650801  0.04845982    -0.06500
C1480       C  0.25914461  0.74982397  0.02622115    -0.10000
C1481       C  0.23793687  0.74555108  0.04681239    -0.26600
S1482       S  0.21974245  0.74396405  0.17815009    -0.03800
C1483       C  0.24738719  0.74983597  0.20066782    -0.17200
C1484       C  0.26868382  0.75439284  0.18024891    -0.15200
H1485       H  0.29949638  0.76063238  0.12267970     0.20100
H1486       H  0.20716799  0.74004746  0.10417969     0.16200
H1487       H  0.21893728  0.74122474  0.03748559     0.18700
H1488       H  0.28771053  0.75830580  0.18978135     0.12000
C1489       C  0.15563965  0.62309114  0.31665239     0.15900
C1490       C  0.14627281  0.59811897  0.31202531    -0.33100
C1491       C  0.11978464  0.59483485  0.31112649     0.20300
C1492       C  0.10320537  0.61539124  0.31526820     0.02500
C1493       C  0.11260047  0.64052677  0.31958300    -0.22800
C1494       C  0.13921773  0.64388555  0.31980312     0.11700
S1495       S  0.18719191  0.63076186  0.31887541    -0.06500
C1496       C  0.17836570  0.66249000  0.32324897    -0.10000
C1497       C  0.15221770  0.66671936  0.32319076    -0.26600
S1498       S  0.07164330  0.60703185  0.31352395    -0.03800
C1499       C  0.08107083  0.57565669  0.30629053    -0.17200
C1500       C  0.10724347  0.57209350  0.30579196    -0.15200
H1501       H  0.15910075  0.58193696  0.30907081     0.20100
H1502       H  0.09977461  0.65672081  0.32238036     0.16200
H1503       H  0.14326004  0.68535778  0.32625478     0.18700
H1504       H  0.11664021  0.55384172  0.30121301     0.12000
C1505       C  0.37287701  0.65220021  0.42707704     0.15900
C1506       C  0.39700742  0.64270445  0.43630595    -0.33100
C1507       C  0.40039189  0.61582899  0.43610401     0.20300
C1508       C  0.38065379  0.59928374  0.42712263     0.02500
C1509       C  0.35693366  0.60877184  0.41702492    -0.22800
C1510       C  0.35352697  0.63546281  0.41737563     0.11700
S1511       S  0.36404005  0.68397442  0.42713297    -0.06500
C1512       C  0.33409491  0.67438732  0.41359899    -0.10000
C1513       C  0.33146212  0.64799894  0.40946446    -0.26600
S1514       S  0.38750267  0.56741687  0.43119923    -0.03800
C1515       C  0.41752548  0.57621874  0.44459570    -0.17200
C1516       C  0.42189292  0.60260883  0.44564393    -0.15200
H1517       H  0.41224574  0.65560994  0.44397782     0.20100
H1518       H  0.34153692  0.59584361  0.40999943     0.16200
H1519       H  0.31412675  0.63835897  0.40132987     0.18700
H1520       H  0.43944775  0.61157780  0.45424652     0.12000
C1521       C  0.34201650  0.88107734  0.42394969     0.15900
C1522       C  0.35137885  0.90604294  0.42972529    -0.33100
C1523       C  0.37797520  0.90944576  0.43042341     0.20300
C1524       C  0.39447967  0.88899498  0.42493598     0.02500
C1525       C  0.38513402  0.86404251  0.41936460    -0.22800
C1526       C  0.35859604  0.86056098  0.41942603     0.11700
S1527       S  0.31043874  0.87292037  0.42147563    -0.06500
C1528       C  0.31974425  0.84147091  0.41506953    -0.10000
C1529       C  0.34592686  0.83773766  0.41479651    -0.26600
S1530       S  0.42604481  0.89696621  0.42707124    -0.03800
C1531       C  0.41704859  0.92816959  0.43616619    -0.17200
C1532       C  0.39082111  0.93198296  0.43707780    -0.15200
H1533       H  0.33851097  0.92206690  0.43371951     0.20100
H1534       H  0.39799631  0.84799211  0.41549833     0.16200
H1535       H  0.35519623  0.81941610  0.41022553     0.18700
H1536       H  0.38165137  0.95011933  0.44309351     0.12000
C1537       C  0.12097208  0.40602011  0.68554490     0.15900
C1538       C  0.14584757  0.39703570  0.68034762    -0.33100
C1539       C  0.14934648  0.37039770  0.67780657     0.20300
C1540       C  0.12903551  0.35336323  0.68053026     0.02500
C1541       C  0.10403097  0.36239669  0.68531253    -0.22800
C1542       C  0.10048264  0.38913079  0.68764361     0.11700
S1543       S  0.11313668  0.43755638  0.69080140    -0.06500
C1544       C  0.08179795  0.42809511  0.69570283    -0.10000
C1545       C  0.07778854  0.40174990  0.69307037    -0.26600
S1546       S  0.13754714  0.32169085  0.67738873    -0.03800
C1547       C  0.16871732  0.33161763  0.67186573    -0.17200
C1548       C  0.17208951  0.35807292  0.67259481    -0.15200
H1549       H  0.16182248  0.41024210  0.67863191     0.20100
H1550       H  0.08809499  0.34918178  0.68736080     0.16200
H1551       H  0.05948093  0.39231738  0.69620823     0.18700
H1552       H  0.19025371  0.36778929  0.66941952     0.12000
C1553       C  0.34174212  0.37440745  0.55310159     0.15900
C1554       C  0.35109255  0.39901211  0.54592674    -0.33100
C1555       C  0.37741518  0.40306453  0.54905592     0.20300
C1556       C  0.39381190  0.38348780  0.55858511     0.02500
C1557       C  0.38451855  0.35869895  0.56508193    -0.22800
C1558       C  0.35813306  0.35468407  0.56218129     0.11700
S1559       S  0.31021225  0.36623844  0.55352399    -0.06500
C1560       C  0.31921408  0.33586667  0.56582335    -0.10000
C1561       C  0.34529609  0.33235089  0.56907787    -0.26600
S1562       S  0.42506686  0.39260516  0.56159119    -0.03800
C1563       C  0.41589133  0.42307121  0.54959099    -0.17200
C1564       C  0.38996751  0.42576706  0.54376656    -0.15200
H1565       H  0.33834803  0.41446642  0.53890737     0.20100
H1566       H  0.39721390  0.34335099  0.57263207     0.16200
H1567       H  0.35425194  0.31478339  0.57764696     0.18700
H1568       H  0.38078964  0.44339510  0.53585827     0.12000
C1569       C  0.39604520  0.11771326  0.56239042     0.15900
C1570       C  0.38708679  0.14285936  0.56822770    -0.33100
C1571       C  0.36068426  0.14716689  0.56527120     0.20300
C1572       C  0.34398614  0.12720099  0.55760366     0.02500
C1573       C  0.35296744  0.10224198  0.55136197    -0.22800
C1574       C  0.37931942  0.09803094  0.55367333     0.11700
S1575       S  0.42732740  0.10838873  0.56402063    -0.06500
C1576       C  0.41780162  0.07781803  0.55190020    -0.10000
C1577       C  0.39164869  0.07520399  0.54746318    -0.26600
S1578       S  0.31256354  0.13569648  0.55764225    -0.03800
C1579       C  0.32187717  0.16672105  0.56713626    -0.17200
C1580       C  0.34808464  0.17008431  0.57029681    -0.15200
H1581       H  0.40010122  0.15835726  0.57470801     0.20100
H1582       H  0.33993578  0.08672682  0.54502818     0.16200
H1583       H  0.38217094  0.05763270  0.53944348     0.18700
H1584       H  0.35726465  0.18800101  0.57754633     0.12000
C1585       C  0.23093622  0.24631681  0.90227531     0.15900
C1586       C  0.21956427  0.24707237  0.86985647    -0.33100
C1587       C  0.23580159  0.24700830  0.84130191     0.20300
C1588       C  0.26212096  0.24622899  0.84504456     0.02500
C1589       C  0.27343834  0.24540142  0.87736375    -0.22800
C1590       C  0.25726563  0.24549503  0.90583357     0.11700
S1591       S  0.21472142  0.24647622  0.94005139    -0.06500
C1592       C  0.24377648  0.24546862  0.96084871    -0.10000
C1593       C  0.26477106  0.24501453  0.93935379    -0.26600
S1594       S  0.27866542  0.24675239  0.80768876    -0.03800
C1595       C  0.24987696  0.24814755  0.78644767    -0.17200
C1596       C  0.22858715  0.24798899  0.80758167    -0.15200
H1597       H  0.19901678  0.24780772  0.86703767     0.20100
H1598       H  0.29399254  0.24486318  0.88019229     0.16200
H1599       H  0.28444047  0.24441362  0.94776356     0.18700
H1600       H  0.20901468  0.24883333  0.79882459     0.12000
C1601       C  0.26868554  0.25077677  0.34532746     0.15900
C1602       C  0.27992942  0.25089694  0.37785656    -0.33100
C1603       C  0.26368680  0.24881999  0.40625462     0.20300
C1604       C  0.23744141  0.24689367  0.40225467     0.02500
C1605       C  0.22624586  0.24649640  0.36977706    -0.22800
C1606       C  0.24247151  0.24838238  0.34143530     0.11700
S1607       S  0.28503447  0.25306722  0.30779116    -0.06500
C1608       C  0.25629841  0.25019654  0.28651617    -0.10000
C1609       C  0.23521570  0.24797856  0.30775073    -0.26600
S1610       S  0.22084826  0.24549173  0.43955924    -0.03800
C1611       C  0.24951777  0.24737626  0.46112454    -0.17200
C1612       C  0.27081622  0.24889802  0.44008290    -0.15200
H1613       H  0.30041001  0.25260629  0.38087678     0.20100
H1614       H  0.20575773  0.24485519  0.36675155     0.16200
H1615       H  0.21570133  0.24590465  0.29904878     0.18700
H1616       H  0.29032936  0.25030281  0.44899228     0.12000
C1617       C  0.12497476  0.40218459  0.18526590     0.15900
C1618       C  0.14985309  0.39278655  0.18187365    -0.33100
C1619       C  0.15308731  0.36607897  0.18060361     0.20300
C1620       C  0.13251135  0.34931929  0.18263287     0.02500
C1621       C  0.10747412  0.35875290  0.18540676    -0.22800
C1622       C  0.10421668  0.38558954  0.18664278     0.11700
S1623       S  0.11750636  0.43388529  0.19007532    -0.06500
C1624       C  0.08598567  0.42489226  0.19406640    -0.10000
C1625       C  0.08162583  0.39860003  0.19106995    -0.26600
S1626       S  0.14079430  0.31749887  0.18093692    -0.03800
C1627       C  0.17219744  0.32705198  0.17664822    -0.17200
C1628       C  0.17581932  0.35346222  0.17708504    -0.15200
H1629       H  0.16605587  0.40574680  0.18080561     0.20100
H1630       H  0.09131225  0.34577771  0.18697394     0.16200
H1631       H  0.06316862  0.38942997  0.19401169     0.18700
H1632       H  0.19412827  0.36296708  0.17427878     0.12000
C1633       C  0.37477740  0.40485687  0.07048690     0.15900
C1634       C  0.35008599  0.39557298  0.07654051    -0.33100
C1635       C  0.34590450  0.36907639  0.07273663     0.20300
C1636       C  0.36537763  0.35248372  0.06315138     0.02500
C1637       C  0.39024529  0.36172141  0.05765305    -0.22800
C1638       C  0.39447413  0.38826004  0.06171404     0.11700
S1639       S  0.38319594  0.43655976  0.07151924    -0.06500
C1640       C  0.41372135  0.42740365  0.06051361    -0.10000
C1641       C  0.41704791  0.40109608  0.05649091    -0.26600
S1642       S  0.35615617  0.32098793  0.05975701    -0.03800
C1643       C  0.32588783  0.33025645  0.07222361    -0.17200
C1644       C  0.32327798  0.35646824  0.07802481    -0.15200
H1645       H  0.33472285  0.40848702  0.08358649     0.20100
H1646       H  0.40556558  0.34883828  0.05034293     0.16200
H1647       H  0.43468380  0.39201758  0.04846116     0.18700
H1648       H  0.30584968  0.36577325  0.08640929     0.12000
C1649       C  0.37678600  0.09237075  0.07495583     0.15900
C1650       C  0.35180791  0.10133594  0.07958667    -0.33100
C1651       C  0.34717543  0.12746853  0.07358378     0.20300
C1652       C  0.36650861  0.14407144  0.06361132     0.02500
C1653       C  0.39166118  0.13522392  0.05979022    -0.22800
C1654       C  0.39632536  0.10901949  0.06576246     0.11700
S1655       S  0.38564838  0.06083629  0.07714670    -0.06500
C1656       C  0.41613160  0.07012688  0.06601238    -0.10000
C1657       C  0.41911719  0.09640617  0.06131418    -0.26600
S1658       S  0.35667747  0.17502350  0.05705419    -0.03800
C1659       C  0.32623969  0.16550226  0.06827429    -0.17200
C1660       C  0.32412424  0.13962811  0.07640224    -0.15200
H1661       H  0.33650664  0.08837007  0.08671064     0.20100
H1662       H  0.40682892  0.14808204  0.05188836     0.16200
H1663       H  0.43653970  0.10549057  0.05250524     0.18700
H1664       H  0.30672674  0.13030944  0.08487954     0.12000
C1665       C  0.86643529  0.14609948  0.68438228     0.15900
C1666       C  0.89114053  0.13721441  0.69133073    -0.33100
C1667       C  0.89524321  0.11054095  0.69034302     0.20300
C1668       C  0.87552318  0.09348317  0.68319083     0.02500
C1669       C  0.85090252  0.10237087  0.67589224    -0.22800
C1670       C  0.84688295  0.12903453  0.67652114     0.11700
S1671       S  0.85753856  0.17769704  0.68433689    -0.06500
C1672       C  0.82722473  0.16787322  0.67309677    -0.10000
C1673       C  0.82437421  0.14140536  0.66981936    -0.26600
S1674       S  0.88397399  0.06185213  0.68505687    -0.03800
C1675       C  0.91454340  0.07162072  0.69505556    -0.17200
C1676       C  0.91781478  0.09809940  0.69677371    -0.15200
H1677       H  0.90646772  0.15050671  0.69732977     0.20100
H1678       H  0.83552151  0.08907183  0.67015390     0.16200
H1679       H  0.80678736  0.13173372  0.66280434     0.18700
H1680       H  0.93549077  0.10767217  0.70360166     0.12000
C1681       C  0.84670490  0.87249262  0.82283620     0.15900
C1682       C  0.85601046  0.89743144  0.81697754    -0.33100
C1683       C  0.88224988  0.90038399  0.81070623     0.20300
C1684       C  0.89864990  0.87949389  0.81091177     0.02500
C1685       C  0.88930644  0.85447645  0.81674166    -0.22800
C1686       C  0.86291594  0.85143984  0.82239810     0.11700
S1687       S  0.81548731  0.86505063  0.83070714    -0.06500
C1688       C  0.82405447  0.83307114  0.83302470    -0.10000
C1689       C  0.84998799  0.82867788  0.82799450    -0.26600
S1690       S  0.92990579  0.88732638  0.80293489    -0.03800
C1691       C  0.92068634  0.91901725  0.79869086    -0.17200
C1692       C  0.89470934  0.92300992  0.80346526    -0.15200
H1693       H  0.84328505  0.91382410  0.81701268     0.20100
H1694       H  0.90201617  0.83807902  0.81658103     0.16200
H1695       H  0.85894494  0.80994164  0.82895654     0.18700
H1696       H  0.88541083  0.94154533  0.80174029     0.12000
C1697       C  0.13580409  0.85784009  0.81201479     0.15900
C1698       C  0.11064483  0.86693994  0.81092226    -0.33100
C1699       C  0.10695867  0.89366263  0.81180182     0.20300
C1700       C  0.12743347  0.91058743  0.81349482     0.02500
C1701       C  0.15260399  0.90148234  0.81481439    -0.22800
C1702       C  0.15627416  0.87474549  0.81411825     0.11700
S1703       S  0.14418025  0.82612833  0.81202030    -0.06500
C1704       C  0.17561972  0.83565130  0.81548907    -0.10000
C1705       C  0.17919965  0.86212741  0.81617385    -0.26600
S1706       S  0.11905138  0.94227386  0.81168305    -0.03800
C1707       C  0.08759331  0.93267021  0.80838147    -0.17200
C1708       C  0.08402188  0.90621817  0.80935382    -0.15200
H1709       H  0.09464174  0.85375863  0.80928531     0.20100
H1710       H  0.16862693  0.91466308  0.81606272     0.16200
H1711       H  0.19751656  0.87161475  0.81899895     0.18700
H1712       H  0.06578827  0.89663408  0.80614276     0.12000
C1713       C  0.15624078  0.12586993  0.69128900     0.15900
C1714       C  0.14703440  0.10080529  0.69609719    -0.33100
C1715       C  0.12071270  0.09660765  0.69239310     0.20300
C1716       C  0.10422640  0.11645524  0.68427454     0.02500
C1717       C  0.11340185  0.14162438  0.67985827    -0.22800
C1718       C  0.13974856  0.14584796  0.68367394     0.11700
S1719       S  0.18769665  0.13452770  0.69260545    -0.06500
C1720       C  0.17857987  0.16551792  0.68327785    -0.10000
C1721       C  0.15245181  0.16875508  0.67945245    -0.26600
S1722       S  0.07287629  0.10736265  0.68155447    -0.03800
C1723       C  0.08200293  0.07654228  0.69198413    -0.17200
C1724       C  0.10812024  0.07370495  0.69677567    -0.15200
H1725       H  0.15986273  0.08520606  0.70223256     0.20100
H1726       H  0.10058163  0.15721460  0.67366420     0.16200
H1727       H  0.14339702  0.18661145  0.67220720     0.18700
H1728       H  0.11733647  0.05599753  0.70429610     0.12000
C1729       C  0.00061728  0.01419718  0.52691899     0.15900
C1730       C  0.00222595  0.02470316  0.49414098    -0.33100
C1731       C  0.00005951  0.00779120  0.46618113     0.20300
C1732       C  0.99668923  0.98155161  0.47050358     0.02500
C1733       C  0.99508576  0.97103503  0.50332665    -0.22800
C1734       C  0.99706093  0.98797741  0.53129566     0.11700
S1735       S  0.00261730  0.03147049  0.56413079    -0.06500
C1736       C  0.99862778  0.00303205  0.58584475    -0.10000
C1737       C  0.99587566  0.98145973  0.56506257    -0.26600
S1738       S  0.99470910  0.96436581  0.43309980    -0.03800
C1739       C  0.99822628  0.99290821  0.41139586    -0.17200
C1740       C  0.00085807  0.01440415  0.43243337    -0.15200
H1741       H  0.00495475  0.04517285  0.49057168     0.20100
H1742       H  0.99236172  0.95056941  0.50691939     0.16200
H1743       H  0.99323485  0.96200095  0.57417874     0.18700
H1744       H  0.00329282  0.03393636  0.42349236     0.12000
C1745       C  0.00033017  0.98578187  0.96984585     0.15900
C1746       C  0.00219451  0.97535378  0.00264350    -0.33100
C1747       C  0.99954408  0.99218959  0.03061843     0.20300
C1748       C  0.99531345  0.01827888  0.02628668     0.02500
C1749       C  0.99344961  0.02872601  0.99344363    -0.22800
C1750       C  0.99606320  0.01186492  0.96544784     0.11700
S1751       S  0.00307297  0.96858863  0.93261481    -0.06500
C1752       C  0.99850801  0.99687210  0.91079734    -0.10000
C1753       C  0.99501242  0.01834081  0.93162971    -0.26600
S1754       S  0.99277223  0.03539103  0.06370129    -0.03800
C1755       C  0.99737630  0.00705576  0.08542411    -0.17200
C1756       C  0.00067641  0.98564469  0.06438583    -0.15200
H1757       H  0.00557308  0.95500149  0.00621301     0.20100
H1758       H  0.99014819  0.04908932  0.98985953     0.16200
H1759       H  0.99192588  0.03771201  0.92251069     0.18700
H1760       H  0.00382780  0.96623468  0.07333085     0.12000
C1761       C  0.89746639  0.12176245  0.20370502     0.15900
C1762       C  0.88809152  0.14691417  0.20022035    -0.33100
C1763       C  0.86163248  0.14988189  0.19590898     0.20300
C1764       C  0.84542004  0.12873595  0.19500832     0.02500
C1765       C  0.85471437  0.10378336  0.19898239    -0.22800
C1766       C  0.88099016  0.10082875  0.20339035     0.11700
S1767       S  0.92890140  0.11366410  0.20804766    -0.06500
C1768       C  0.91947978  0.08185764  0.20987125    -0.10000
C1769       C  0.89343892  0.07797687  0.20720407    -0.26600
S1770       S  0.81426889  0.13582436  0.18773920    -0.03800
C1771       C  0.82284780  0.16778811  0.18608818    -0.17200
C1772       C  0.84868318  0.17253417  0.19112833    -0.15200
H1773       H  0.90084231  0.16334943  0.20043306     0.20100
H1774       H  0.84201244  0.08731233  0.19822754     0.16200
H1775       H  0.88411685  0.05934903  0.20760668     0.18700
H1776       H  0.85757601  0.19135362  0.19018813     0.12000
C1777       C  0.87070724  0.84722576  0.31395142     0.15900
C1778       C  0.89495456  0.85680729  0.30512583    -0.33100
C1779       C  0.89836362  0.88368737  0.30531093     0.20300
C1780       C  0.87844047  0.90017146  0.31350206     0.02500
C1781       C  0.85443577  0.89061123  0.32267048    -0.22800
C1782       C  0.85110967  0.86389677  0.32276605     0.11700
S1783       S  0.86223997  0.81537011  0.31522035    -0.06500
C1784       C  0.83212767  0.82484784  0.32813162    -0.10000
C1785       C  0.82909575  0.85123545  0.33102550    -0.26600
S1786       S  0.88578244  0.93206072  0.31082098    -0.03800
C1787       C  0.91627276  0.92333934  0.29913356    -0.17200
C1788       C  0.92033144  0.89694218  0.29740250    -0.15200
H1789       H  0.91041212  0.84393330  0.29834872     0.20100
H1790       H  0.83892681  0.90347897  0.32927658     0.16200
H1791       H  0.81162766  0.86073581  0.33886324     0.18700
H1792       H  0.93814988  0.88799880  0.28987115     0.12000
C1793       C  0.13168931  0.85008737  0.30233885     0.15900
C1794       C  0.10643065  0.85923583  0.30133863    -0.33100
C1795       C  0.10278283  0.88605575  0.30115211     0.20300
C1796       C  0.12340408  0.90284915  0.30176254     0.02500
C1797       C  0.14848642  0.89374111  0.30309510    -0.22800
C1798       C  0.15211627  0.86707996  0.30341075     0.11700
S1799       S  0.14048269  0.81838585  0.30351769    -0.06500
C1800       C  0.17194398  0.82828271  0.30606131    -0.10000
C1801       C  0.17513188  0.85476110  0.30557716    -0.26600
S1802       S  0.11546311  0.93451316  0.29957858    -0.03800
C1803       C  0.08385528  0.92535681  0.29809836    -0.17200
C1804       C  0.07987131  0.89892549  0.29934428    -0.15200
H1805       H  0.09038139  0.84606892  0.30071625     0.20100
H1806       H  0.16453564  0.90691472  0.30372846     0.16200
H1807       H  0.19333041  0.86455972  0.30787069     0.18700
H1808       H  0.06138712  0.88964611  0.29744817     0.12000
C1809       C  0.15943930  0.12141013  0.19210617     0.15900
C1810       C  0.14947163  0.09666786  0.19744279    -0.33100
C1811       C  0.12305713  0.09313561  0.19323432     0.20300
C1812       C  0.10730826  0.11322481  0.18369343     0.02500
C1813       C  0.11723585  0.13800120  0.17869562    -0.22800
C1814       C  0.14354584  0.14164008  0.18350444     0.11700
S1815       S  0.19109041  0.12948277  0.19415762    -0.06500
C1816       C  0.18268474  0.16059299  0.18425098    -0.10000
C1817       C  0.15673020  0.16424107  0.17951236    -0.26600
S1818       S  0.07575109  0.10508753  0.18046472    -0.03800
C1819       C  0.08368384  0.07434971  0.19285734    -0.17200
C1820       C  0.10962481  0.07080995  0.19853522    -0.15200
H1821       H  0.16175467  0.08086657  0.20455665     0.20100
H1822       H  0.10495946  0.15380306  0.17156704     0.16200
H1823       H  0.14814120  0.18219696  0.17170853     0.18700
H1824       H  0.11811373  0.05307196  0.20731368     0.12000
loop_ 
_geom_bond_atom_site_label_1 
_geom_bond_atom_site_label_2 
_geom_bond_distance 
_geom_bond_site_symmetry_2 
_ccdc_geom_bond_type 
Zr1           O2   2.443       .  S
Zr1           O3   2.460       .  S
Zr1           O4   2.454   1_655  S
Zr1           O7   2.436       .  S
Zr1           O9   2.377   1_655  S
Zr1          O10   2.391       .  S
Zr1          O11   2.413   1_655  S
Zr1          O12   2.405       .  S
O2           H58   0.990   1_655  S
O2           H66   0.991   1_655  S
O3           C23   1.287       .  A
O4           C25   1.286       .  A
O5          Zr15   2.429       .  S
O5           C24   1.285       .  A
O6          Zr14   2.428       .  S
O6           C25   1.283       .  A
O7           C24   1.284       .  A
O8          Zr16   2.401       .  S
O8           C23   1.277   1_565  A
O9          Zr14   2.396       .  S
O9          Zr16   2.381   1_445  S
O10         Zr15   2.396       .  S
O10         Zr16   2.380   1_545  S
O10          H45   0.966       .  S
O11         Zr14   2.393       .  S
O11         Zr31   2.392   1_455  S
O11          H48   0.965       .  S
O12         Zr15   2.388       .  S
O12         Zr31   2.386       .  S
Zr13         O38   2.443       .  S
Zr13         O32   2.458       .  S
Zr13         O40   2.448       .  S
Zr13         O28   2.465   1_655  S
Zr13         O19   2.406       .  S
Zr13         O20   2.415   1_655  S
Zr13         O21   2.385   1_655  S
Zr13         O22   2.391       .  S
Zr14         O33   2.436       .  S
Zr14         O26   2.435   1_545  S
Zr14         O27   2.414   1_545  S
Zr14         O20   2.405   1_545  S
Zr14         O21   2.394   1_545  S
Zr15         O17   2.435       .  S
Zr15         O39   2.437   1_545  S
Zr15         O41   2.427   1_545  S
Zr15         O19   2.391   1_545  S
Zr15         O22   2.396   1_545  S
Zr16         O42   2.437       .  S
Zr16         O43   2.435       .  S
Zr16         O18   2.438   1_655  S
Zr16         O19   2.392       .  S
Zr16         O20   2.383   1_655  S
O17          H54   0.990       .  S
O18          H49   0.990       .  S
O18          H63   0.990       .  S
O20          H46   0.964       .  S
O21         Zr31   2.380   1_465  S
O22         Zr31   2.383   1_565  S
O22          H47   0.966       .  S
C23        C1755   1.478       .  S
C24        C1768   1.469       .  S
C25        C1819   1.479       .  S
O26          H62   0.990       .  S
O27          C29   1.281       .  A
O28          C29   1.288       .  A
C29        C1803   1.473       .  S
O30         Zr31   2.438   1_455  S
O30          H59   0.991       .  S
Zr31         O34   2.440   1_655  S
Zr31         O35   2.439       .  S
Zr31         O36   2.406       .  S
O32          C37   1.287       .  A
O33          H50   0.990       .  S
O33          H65   0.990       .  S
O34          H51   0.990       .  S
O35          H55   0.990       .  S
O35          H64   0.990       .  S
O36          C37   1.279   1_545  A
C37        C1739   1.477       .  S
O38          H57   0.991   1_655  S
O38          H61   0.990   1_655  S
O39          H53   0.990       .  S
O39          H60   0.990       .  S
O40          C44   1.286       .  A
O41          C44   1.283       .  A
O42          H52   0.990       .  S
O43          H56   0.990       .  S
C44        C1787   1.473       .  S
Zr67         O68   2.442       .  S
Zr67         O69   2.439       .  S
Zr67         O70   2.462   1_655  S
Zr67         O73   2.452       .  S
Zr67         O75   2.383   1_655  S
Zr67         O76   2.392   1_545  S
Zr67         O77   2.409   1_655  S
Zr67         O78   2.401       .  S
O68         H124   0.990   1_655  S
O68         H132   0.991   1_655  S
O69          C89   1.283       .  A
O70          C91   1.288       .  A
O71         Zr81   2.422   1_545  S
O71          C90   1.282       .  A
O72         Zr80   2.419       .  S
O72          C91   1.282       .  A
O73          C90   1.287       .  A
O74         Zr82   2.406   1_655  S
O74          C89   1.279   1_565  A
O75         Zr80   2.397       .  S
O75         Zr82   2.383   1_545  S
O76         Zr81   2.394       .  S
O76         Zr82   2.380   1_655  S
O76         H111   0.966       .  S
O77         Zr80   2.401       .  S
O77         Zr97   2.387   1_455  S
O77         H114   0.965       .  S
O78         Zr81   2.390   1_545  S
O78         Zr97   2.390       .  S
Zr79        O104   2.442       .  S
Zr79         O98   2.448   1_455  S
Zr79        O106   2.455   1_455  S
Zr79         O94   2.458       .  S
Zr79         O85   2.408   1_455  S
Zr79         O86   2.415       .  S
Zr79         O87   2.383   1_565  S
Zr79         O88   2.387   1_455  S
Zr80         O99   2.438       .  S
Zr80         O92   2.436   1_545  S
Zr80         O93   2.425   1_545  S
Zr80         O86   2.400   1_545  S
Zr80         O87   2.396       .  S
Zr81         O83   2.434   1_565  S
Zr81        O105   2.440       .  S
Zr81        O107   2.433       .  S
Zr81         O85   2.394       .  S
Zr81         O88   2.390       .  S
Zr82        O108   2.433   1_455  S
Zr82        O109   2.435       .  S
Zr82         O84   2.439       .  S
Zr82         O85   2.391   1_455  S
Zr82         O86   2.388       .  S
O83         H120   0.990       .  S
O84         H115   0.990       .  S
O84         H129   0.990       .  S
O86         H112   0.965       .  S
O87         Zr97   2.382   1_455  S
O88         Zr97   2.382   1_565  S
O88         H113   0.966       .  S
C89        C1736   1.470       .  S
C90        C1675   1.473       .  S
C91        C1723   1.478       .  S
O92         H128   0.990       .  S
O93          C95   1.282       .  A
O94          C95   1.287       .  A
C95        C1707   1.475       .  S
O96         Zr97   2.438       .  S
O96         H125   0.990       .  S
Zr97        O100   2.438   1_655  S
Zr97        O101   2.440       .  S
Zr97        O102   2.406       .  S
O98         C103   1.285       .  A
O99         H116   0.990       .  S
O99         H131   0.990       .  S
O100        H117   0.990       .  S
O101        H121   0.990       .  S
O101        H130   0.990       .  S
O102        C103   1.279   1_545  A
C103       C1752   1.474       .  S
O104        H123   0.990       .  S
O104        H127   0.991       .  S
O105        H119   0.989       .  S
O105        H126   0.990       .  S
O106        C110   1.288       .  A
O107        C110   1.285       .  A
O108        H118   0.990       .  S
O109        H122   0.990       .  S
C110       C1691   1.482       .  S
Zr133       O134   2.442       .  S
Zr133       O135   2.465       .  S
Zr133       O136   2.460       .  S
Zr133       O139   2.443       .  S
Zr133       O141   2.379       .  S
Zr133       O142   2.388       .  S
Zr133       O143   2.416       .  S
Zr133       O144   2.408       .  S
O134        H190   0.990       .  S
O134        H198   0.990       .  S
O135        C155   1.289   1_554  A
O136        C157   1.288       .  A
O137       Zr147   2.435       .  S
O137        C156   1.285       .  A
O138       Zr146   2.419       .  S
O138        C157   1.282       .  A
O139        C156   1.285       .  A
O140       Zr148   2.388       .  S
O140        C155   1.274   1_554  A
O141       Zr146   2.396       .  S
O141       Zr148   2.386       .  S
O142       Zr147   2.394       .  S
O142       Zr148   2.380       .  S
O142        H177   0.966       .  S
O143       Zr146   2.397       .  S
O143       Zr163   2.383       .  S
O143        H180   0.964       .  S
O144       Zr147   2.384       .  S
O144       Zr163   2.387       .  S
Zr145       O170   2.442       .  S
Zr145       O164   2.461       .  S
Zr145       O172   2.445       .  S
Zr145       O160   2.459       .  S
Zr145       O151   2.403       .  S
Zr145       O152   2.413       .  S
Zr145       O153   2.377       .  S
Zr145       O154   2.390       .  S
Zr146       O165   2.436       .  S
Zr146       O158   2.435       .  S
Zr146       O159   2.422       .  S
Zr146       O152   2.400       .  S
Zr146       O153   2.396       .  S
Zr147       O149   2.433       .  S
Zr147       O171   2.441       .  S
Zr147       O173   2.424       .  S
Zr147       O151   2.389       .  S
Zr147       O154   2.395       .  S
Zr148       O174   2.436       .  S
Zr148       O175   2.438       .  S
Zr148       O150   2.439       .  S
Zr148       O151   2.382       .  S
Zr148       O152   2.389       .  S
O149        H186   0.990       .  S
O150        H181   0.990       .  S
O150        H195   0.990       .  S
O152        H178   0.965       .  S
O153       Zr163   2.384       .  S
O154       Zr163   2.379       .  S
O154        H179   0.966       .  S
C155       C1592   1.472       .  S
C156       C1643   1.475       .  S
C157       C1659   1.474       .  S
O158        H194   0.990       .  S
O159        C161   1.282       .  A
O160        C161   1.288       .  A
C161       C1816   1.471       .  S
O162       Zr163   2.439       .  S
O162        H191   0.990       .  S
Zr163       O166   2.439       .  S
Zr163       O167   2.440       .  S
Zr163       O168   2.399       .  S
O164        C169   1.288       .  A
O165        H182   0.990       .  S
O165        H197   0.990       .  S
O166        H183   0.990       .  S
O167        H187   0.990       .  S
O167        H196   0.990       .  S
O168        C169   1.277       .  A
C169       C1608   1.475       .  S
O170        H189   0.990       .  S
O170        H193   0.991       .  S
O171        H185   0.990       .  S
O171        H192   0.990       .  S
O172        C176   1.286       .  A
O173        C176   1.283       .  A
O174        H184   0.990       .  S
O175        H188   0.990       .  S
C176       C1627   1.472       .  S
Zr199       O200   2.443       .  S
Zr199       O201   2.460       .  S
Zr199       O202   2.457       .  S
Zr199       O205   2.438       .  S
Zr199       O207   2.384       .  S
Zr199       O208   2.389       .  S
Zr199       O209   2.414       .  S
Zr199       O210   2.406       .  S
O200        H256   0.990       .  S
O200        H264   0.991       .  S
O201        C221   1.288       .  A
O202        C223   1.286       .  A
O203       Zr213   2.421       .  S
O203        C222   1.282       .  A
O204       Zr212   2.419       .  S
O204        C223   1.281       .  A
O205        C222   1.285       .  A
O206       Zr214   2.398       .  S
O206        C221   1.277       .  A
O207       Zr212   2.399       .  S
O207       Zr214   2.379       .  S
O208       Zr213   2.392       .  S
O208       Zr214   2.372       .  S
O208        H243   0.966       .  S
O209       Zr212   2.401       .  S
O209       Zr229   2.386       .  S
O209        H246   0.965       .  S
O210       Zr213   2.387       .  S
O210       Zr229   2.383       .  S
Zr211       O236   2.442       .  S
Zr211       O230   2.461       .  S
Zr211       O238   2.446       .  S
Zr211       O226   2.455       .  S
Zr211       O217   2.405       .  S
Zr211       O218   2.415       .  S
Zr211       O219   2.381       .  S
Zr211       O220   2.392       .  S
Zr212       O231   2.435       .  S
Zr212       O224   2.433       .  S
Zr212       O225   2.427       .  S
Zr212       O218   2.396       .  S
Zr212       O219   2.389       .  S
Zr213       O215   2.434       .  S
Zr213       O237   2.441       .  S
Zr213       O239   2.420       .  S
Zr213       O217   2.386       .  S
Zr213       O220   2.398       .  S
Zr214       O240   2.437       .  S
Zr214       O241   2.433       .  S
Zr214       O216   2.435       .  S
Zr214       O217   2.387       .  S
Zr214       O218   2.379       .  S
O215        H252   0.990       .  S
O216        H247   0.990       .  S
O216        H261   0.990       .  S
O218        H244   0.964       .  S
O219       Zr229   2.385       .  S
O220       Zr229   2.384       .  S
O220        H245   0.966       .  S
C221       C1611   1.476       .  S
C222       C1560   1.465       .  S
C223       C1579   1.471       .  S
O224        H260   0.989       .  S
O225        C227   1.283       .  A
O226        C227   1.287       .  A
C227       C1720   1.472       .  S
O228       Zr229   2.439       .  S
O228        H257   0.990       .  S
Zr229       O232   2.437       .  S
Zr229       O233   2.442       .  S
Zr229       O234   2.390       .  S
O230        C235   1.287       .  A
O231        H248   0.990       .  S
O231        H263   0.990       .  S
O232        H249   0.990       .  S
O233        H253   0.990       .  S
O233        H262   0.990       .  S
O234        C235   1.276       .  A
C235       C1595   1.473       .  S
O236        H255   0.991       .  S
O236        H259   0.990       .  S
O237        H251   0.990       .  S
O237        H258   0.990       .  S
O238        C242   1.286       .  A
O239        C242   1.282       .  A
O240        H250   0.990       .  S
O241        H254   0.990       .  S
C242       C1547   1.472       .  S
Zr265       O266   2.441       .  S
Zr265       O267   2.459       .  S
Zr265       O268   2.452       .  S
Zr265       O271   2.450       .  S
Zr265       O273   2.382       .  S
Zr265       O274   2.386       .  S
Zr265       O275   2.418       .  S
Zr265       O276   2.402       .  S
O266        H322   0.990       .  S
O266        H330   0.990       .  S
O267        C287   1.287       .  A
O268        C289   1.286       .  A
O269       Zr279   2.414       .  S
O269        C288   1.281       .  A
O270       Zr278   2.433       .  S
O270        C289   1.284       .  A
O271        C288   1.287       .  A
O272       Zr280   2.401       .  S
O272        C287   1.277       .  A
O273       Zr278   2.395       .  S
O273       Zr280   2.383       .  S
O274       Zr279   2.392       .  S
O274       Zr280   2.376       .  S
O274        H309   0.967       .  S
O275       Zr278   2.401       .  S
O275       Zr295   2.386       .  S
O275        H312   0.965       .  S
O276       Zr279   2.391       .  S
O276       Zr295   2.391       .  S
Zr277       O302   2.442       .  S
Zr277       O296   2.454       .  S
Zr277       O304   2.459       .  S
Zr277       O292   2.440       .  S
Zr277       O283   2.401       .  S
Zr277       O284   2.417       .  S
Zr277       O285   2.384       .  S
Zr277       O286   2.386       .  S
Zr278       O297   2.435       .  S
Zr278       O290   2.437       .  S
Zr278       O291   2.429       .  S
Zr278       O284   2.401       .  S
Zr278       O285   2.398       .  S
Zr279       O281   2.437       .  S
Zr279       O303   2.439       .  S
Zr279       O305   2.419       .  S
Zr279       O283   2.384       .  S
Zr279       O286   2.395       .  S
Zr280       O306   2.438       .  S
Zr280       O307   2.436       .  S
Zr280       O282   2.434       .  S
Zr280       O283   2.384       .  S
Zr280       O284   2.385       .  S
O281        H318   0.990       .  S
O282        H313   0.990       .  S
O282        H327   0.990       .  S
O284        H310   0.965       .  S
O285       Zr295   2.377       .  S
O286       Zr295   2.380       .  S
O286        H311   0.966       .  S
C287       C1483   1.478       .  S
C288       C1496   1.468       .  S
C289       C1800   1.477       .  S
O290        H326   0.990       .  S
O291        C293   1.283       .  A
O292        C293   1.285       .  A
C293       C1528   1.469       .  S
O294       Zr295   2.437       .  S
O294        H323   0.991       .  S
Zr295       O298   2.437       .  S
Zr295       O299   2.439       .  S
Zr295       O300   2.401       .  S
O296        C301   1.286       .  A
O297        H314   0.990       .  S
O297        H329   0.990       .  S
O298        H315   0.990       .  S
O299        H319   0.990       .  S
O299        H328   0.990       .  S
O300        C301   1.278       .  A
C301       C1467   1.475       .  S
O302        H321   0.990       .  S
O302        H325   0.991       .  S
O303        H317   0.990       .  S
O303        H324   0.990       .  S
O304        C308   1.287       .  A
O305        C308   1.283       .  A
O306        H316   0.990       .  S
O307        H320   0.990       .  S
C308       C1512   1.478       .  S
Zr331       O332   2.443       .  S
Zr331       O333   2.461       .  S
Zr331       O334   2.451       .  S
Zr331       O337   2.440       .  S
Zr331       O339   2.382       .  S
Zr331       O340   2.391       .  S
Zr331       O341   2.415       .  S
Zr331       O342   2.404       .  S
O332        H388   0.990       .  S
O332        H396   0.991       .  S
O333        C353   1.287       .  A
O334        C355   1.285       .  A
O335       Zr345   2.425       .  S
O335        C354   1.283       .  A
O336       Zr344   2.426       .  S
O336        C355   1.283       .  A
O337        C354   1.285       .  A
O338       Zr346   2.400       .  S
O338        C353   1.277       .  A
O339       Zr344   2.403       .  S
O339       Zr346   2.387       .  S
O340       Zr345   2.393       .  S
O340       Zr346   2.374       .  S
O340        H375   0.966       .  S
O341       Zr344   2.399       .  S
O341       Zr361   2.390       .  S
O341        H378   0.965       .  S
O342       Zr345   2.388       .  S
O342       Zr361   2.385       .  S
Zr343       O368   2.442       .  S
Zr343       O362   2.457       .  S
Zr343       O370   2.446       .  S
Zr343       O358   2.442       .  S
Zr343       O349   2.411       .  S
Zr343       O350   2.412       .  S
Zr343       O351   2.380       .  S
Zr343       O352   2.386       .  S
Zr344       O363   2.435       .  S
Zr344       O356   2.432       .  S
Zr344       O357   2.432       .  S
Zr344       O350   2.397       .  S
Zr344       O351   2.392       .  S
Zr345       O347   2.437       .  S
Zr345       O369   2.435       .  S
Zr345       O371   2.426       .  S
Zr345       O349   2.395       .  S
Zr345       O352   2.395       .  S
Zr346       O372   2.436       .  S
Zr346       O373   2.435       .  S
Zr346       O348   2.436       .  S
Zr346       O349   2.394       .  S
Zr346       O350   2.379       .  S
O347        H384   0.990       .  S
O348        H379   0.990       .  S
O348        H393   0.990       .  S
O350        H376   0.964       .  S
O351       Zr361   2.384       .  S
O352       Zr361   2.379       .  S
O352        H377   0.966       .  S
C353       C1464   1.478       .  S
C354       C1416   1.468       .  S
C355       C1704   1.474       .  S
O356        H392   0.990       .  S
O357        C359   1.285       .  A
O358        C359   1.286       .  A
C359       C1451   1.472       .  S
O360       Zr361   2.438       .  S
O360        H389   0.990       .  S
Zr361       O364   2.439       .  S
Zr361       O365   2.439       .  S
Zr361       O366   2.400       .  S
O362        C367   1.287       .  A
O363        H380   0.990       .  S
O363        H395   0.990       .  S
O364        H381   0.990       .  S
O365        H385   0.990       .  S
O365        H394   0.990       .  S
O366        C367   1.278       .  A
C367       C1480   1.476   1_556  S
O368        H387   0.990       .  S
O368        H391   0.991       .  S
O369        H383   0.990       .  S
O369        H390   0.990       .  S
O370        C374   1.285       .  A
O371        C374   1.283       .  A
O372        H382   0.990       .  S
O373        H386   0.990       .  S
C374       C1432   1.477       .  S
Zr397       O398   2.442       .  S
Zr397       O399   2.447       .  S
Zr397       O400   2.449       .  S
Zr397       O403   2.453       .  S
Zr397       O405   2.382   1_565  S
Zr397       O406   2.391   1_565  S
Zr397       O407   2.416       .  S
Zr397       O408   2.398       .  S
O398        H454   0.991       .  S
O398        H462   0.990       .  S
O399        C419   1.285   1_565  A
O400        C421   1.286       .  A
O401       Zr411   2.436   1_565  S
O401        C420   1.286       .  A
O402       Zr410   2.419   1_566  S
O402        C421   1.281       .  A
O403        C420   1.287       .  A
O404       Zr412   2.405       .  S
O404        C419   1.278       .  A
O405       Zr410   2.395   1_556  S
O405       Zr412   2.382       .  S
O406       Zr411   2.398       .  S
O406       Zr412   2.385       .  S
O406        H441   0.966       .  S
O407       Zr410   2.398   1_566  S
O407       Zr427   2.394   1_556  S
O407        H444   0.965       .  S
O408       Zr411   2.386   1_565  S
O408       Zr427   2.386   1_556  S
Zr409       O434   2.439       .  S
Zr409       O428   2.454       .  S
Zr409       O436   2.448       .  S
Zr409       O424   2.463       .  S
Zr409       O415   2.400   1_554  S
Zr409       O416   2.412       .  S
Zr409       O417   2.382   1_545  S
Zr409       O418   2.391   1_545  S
Zr410       O429   2.438   1_545  S
Zr410       O422   2.436   1_554  S
Zr410       O423   2.420       .  S
Zr410       O416   2.395       .  S
Zr410       O417   2.396   1_545  S
Zr411       O413   2.436   1_546  S
Zr411       O435   2.437       .  S
Zr411       O437   2.437   1_556  S
Zr411       O415   2.387       .  S
Zr411       O418   2.395   1_546  S
Zr412       O438   2.434       .  S
Zr412       O439   2.437       .  S
Zr412       O414   2.440       .  S
Zr412       O415   2.381       .  S
Zr412       O416   2.386   1_556  S
O413        H450   0.990       .  S
O414        H445   0.991       .  S
O414        H459   0.990       .  S
O416        H442   0.965       .  S
O417       Zr427   2.385       .  S
O418       Zr427   2.384       .  S
O418        H443   0.966       .  S
C419       C1352   1.472       .  S
C420       C1384   1.478       .  S
C421       C1448   1.466       .  S
O422        H458   0.990       .  S
O423        C425   1.282       .  A
O424        C425   1.288       .  A
C425       C1656   1.471       .  S
O426       Zr427   2.441       .  S
O426        H455   0.991       .  S
Zr427       O430   2.438       .  S
Zr427       O431   2.442       .  S
Zr427       O432   2.407       .  S
O428        C433   1.287   1_545  A
O429        H446   0.990       .  S
O429        H461   0.990       .  S
O430        H447   0.990       .  S
O431        H451   0.990       .  S
O431        H460   0.990       .  S
O432        C433   1.278       .  A
C433       C1368   1.476       .  S
O434        H453   0.990       .  S
O434        H457   0.990       .  S
O435        H449   0.990       .  S
O435        H456   0.990       .  S
O436        C440   1.286       .  A
O437        C440   1.286       .  A
O438        H448   0.991       .  S
O439        H452   0.990       .  S
C440       C1400   1.475       .  S
Zr463       O464   2.442       .  S
Zr463       O465   2.466       .  S
Zr463       O466   2.448       .  S
Zr463       O469   2.454       .  S
Zr463       O471   2.388   1_565  S
Zr463       O472   2.384       .  S
Zr463       O473   2.422       .  S
Zr463       O474   2.406       .  S
O464        H520   0.990       .  S
O464        H528   0.990       .  S
O465        C485   1.288   1_565  A
O466        C487   1.286       .  A
O467       Zr477   2.417       .  S
O467        C486   1.282       .  A
O468       Zr476   2.441   1_565  S
O468        C487   1.285       .  A
O469        C486   1.287       .  A
O470       Zr478   2.407       .  S
O470        C485   1.278       .  A
O471       Zr476   2.404       .  S
O471       Zr478   2.385       .  S
O472       Zr477   2.393       .  S
O472       Zr478   2.379   1_565  S
O472        H507   0.966       .  S
O473       Zr476   2.403   1_565  S
O473       Zr493   2.387       .  S
O473        H510   0.964       .  S
O474       Zr477   2.385       .  S
O474       Zr493   2.393       .  S
Zr475       O500   2.441       .  S
Zr475       O494   2.454       .  S
Zr475       O502   2.454       .  S
Zr475       O490   2.452       .  S
Zr475       O481   2.401       .  S
Zr475       O482   2.418       .  S
Zr475       O483   2.385       .  S
Zr475       O484   2.385   1_545  S
Zr476       O495   2.437   1_545  S
Zr476       O488   2.434       .  S
Zr476       O489   2.441       .  S
Zr476       O482   2.405       .  S
Zr476       O483   2.398       .  S
Zr477       O479   2.435       .  S
Zr477       O501   2.436   1_565  S
Zr477       O503   2.415   1_565  S
Zr477       O481   2.388   1_565  S
Zr477       O484   2.395       .  S
Zr478       O504   2.435       .  S
Zr478       O505   2.433       .  S
Zr478       O480   2.437       .  S
Zr478       O481   2.389       .  S
Zr478       O482   2.385       .  S
O479        H516   0.990       .  S
O480        H511   0.990       .  S
O480        H525   0.990       .  S
O482        H508   0.965       .  S
O483       Zr493   2.380   1_545  S
O484       Zr493   2.376       .  S
O484        H509   0.966       .  S
C485       C1371   1.481       .  S
C486       C1320   1.476       .  S
C487       C1531   1.476       .  S
O488        H524   0.990       .  S
O489        C491   1.287       .  A
O490        C491   1.287       .  A
C491       C1576   1.479       .  S
O492       Zr493   2.437       .  S
O492        H521   0.990       .  S
Zr493       O496   2.438       .  S
Zr493       O497   2.441       .  S
Zr493       O498   2.410       .  S
O494        C499   1.286       .  A
O495        H512   0.990       .  S
O495        H527   0.990       .  S
O496        H513   0.990       .  S
O497        H517   0.990       .  S
O497        H526   0.990       .  S
O498        C499   1.279   1_565  A
C499       C1355   1.478       .  S
O500        H519   0.990       .  S
O500        H523   0.991       .  S
O501        H515   0.990       .  S
O501        H522   0.990       .  S
O502        C506   1.288       .  A
O503        C506   1.281       .  A
O504        H514   0.990       .  S
O505        H518   0.990       .  S
C506       C1336   1.473       .  S
Zr529       O530   2.442       .  S
Zr529       O531   2.457       .  S
Zr529       O532   2.447       .  S
Zr529       O535   2.447       .  S
Zr529       O537   2.381       .  S
Zr529       O538   2.382       .  S
Zr529       O539   2.413       .  S
Zr529       O540   2.403       .  S
O530        H586   0.990       .  S
O530        H594   0.991       .  S
O531        C551   1.287       .  A
O532        C553   1.285       .  A
O533       Zr543   2.421       .  S
O533        C552   1.282       .  A
O534       Zr542   2.419       .  S
O534        C553   1.283       .  A
O535        C552   1.287       .  A
O536       Zr544   2.412       .  S
O536        C551   1.280       .  A
O537       Zr542   2.400       .  S
O537       Zr544   2.377       .  S
O538       Zr543   2.392       .  S
O538       Zr544   2.375       .  S
O538        H573   0.966       .  S
O539       Zr542   2.401       .  S
O539       Zr559   2.386       .  S
O539        H576   0.965       .  S
O540       Zr543   2.389       .  S
O540       Zr559   2.387       .  S
Zr541       O566   2.442       .  S
Zr541       O560   2.460       .  S
Zr541       O568   2.439       .  S
Zr541       O556   2.450       .  S
Zr541       O547   2.408       .  S
Zr541       O548   2.411       .  S
Zr541       O549   2.381       .  S
Zr541       O550   2.389       .  S
Zr542       O561   2.437       .  S
Zr542       O554   2.436       .  S
Zr542       O555   2.428       .  S
Zr542       O548   2.397       .  S
Zr542       O549   2.393       .  S
Zr543       O545   2.436       .  S
Zr543       O567   2.435       .  S
Zr543       O569   2.421       .  S
Zr543       O547   2.389       .  S
Zr543       O550   2.394       .  S
Zr544       O570   2.435       .  S
Zr544       O571   2.435       .  S
Zr544       O546   2.438       .  S
Zr544       O547   2.393       .  S
Zr544       O548   2.392       .  S
O545        H582   0.990       .  S
O546        H577   0.990       .  S
O546        H591   0.990       .  S
O548        H574   0.965       .  S
O549       Zr559   2.383       .  S
O550       Zr559   2.382       .  S
O550        H575   0.965       .  S
C551       C1259   1.481       .  S
C552       C1323   1.471       .  S
C553       C1307   1.471       .  S
O554        H590   0.990       .  S
O555        C557   1.283       .  A
O556        C557   1.286       .  A
C557       C1291   1.473       .  S
O558       Zr559   2.439       .  S
O558        H587   0.991       .  S
Zr559       O562   2.438       .  S
Zr559       O563   2.440       .  S
Zr559       O564   2.397       .  S
O560        C565   1.288       .  A
O561        H578   0.990       .  S
O561        H593   0.990       .  S
O562        H579   0.990       .  S
O563        H583   0.990       .  S
O563        H592   0.990       .  S
O564        C565   1.277       .  A
C565       C1275   1.476       .  S
O566        H585   0.991       .  S
O566        H589   0.990       .  S
O567        H581   0.990       .  S
O567        H588   0.990       .  S
O568        C572   1.284       .  A
O569        C572   1.283       .  A
O570        H580   0.990       .  S
O571        H584   0.990       .  S
C572       C1784   1.474       .  S
Zr595       O596   2.442       .  S
Zr595       O597   2.454       .  S
Zr595       O598   2.462       .  S
Zr595       O601   2.459       .  S
Zr595       O603   2.384       .  S
Zr595       O604   2.392       .  S
Zr595       O605   2.414       .  S
Zr595       O606   2.405       .  S
O596        H652   0.990       .  S
O596        H660   0.990       .  S
O597        C617   1.286   1_556  A
O598        C619   1.288       .  A
O599       Zr609   2.421       .  S
O599        C618   1.283       .  A
O600       Zr608   2.409       .  S
O600        C619   1.279       .  A
O601        C618   1.288       .  A
O602       Zr610   2.397       .  S
O602        C617   1.277   1_556  A
O603       Zr608   2.393       .  S
O603       Zr610   2.379       .  S
O604       Zr609   2.390       .  S
O604       Zr610   2.382       .  S
O604        H639   0.966       .  S
O605       Zr608   2.398       .  S
O605       Zr625   2.392       .  S
O605        H642   0.966       .  S
O606       Zr609   2.388       .  S
O606       Zr625   2.388       .  S
Zr607       O632   2.442       .  S
Zr607       O626   2.456       .  S
Zr607       O634   2.463       .  S
Zr607       O622   2.476       .  S
Zr607       O613   2.407       .  S
Zr607       O614   2.410       .  S
Zr607       O615   2.385       .  S
Zr607       O616   2.391       .  S
Zr608       O627   2.438       .  S
Zr608       O620   2.437       .  S
Zr608       O621   2.406       .  S
Zr608       O614   2.398       .  S
Zr608       O615   2.393       .  S
Zr609       O611   2.437       .  S
Zr609       O633   2.438       .  S
Zr609       O635   2.422       .  S
Zr609       O613   2.391       .  S
Zr609       O616   2.392       .  S
Zr610       O636   2.436       .  S
Zr610       O637   2.434       .  S
Zr610       O612   2.438       .  S
Zr610       O613   2.390       .  S
Zr610       O614   2.384       .  S
O611        H648   0.990       .  S
O612        H643   0.990       .  S
O612        H657   0.990       .  S
O614        H640   0.965       .  S
O615       Zr625   2.380       .  S
O616       Zr625   2.382       .  S
O616        H641   0.966       .  S
C617       C1272   1.474       .  S
C618       C1387   1.478       .  S
C619       C1240   1.470       .  S
O620        H656   0.990       .  S
O621        C623   1.279       .  A
O622        C623   1.291       .  A
C623       C1224   1.478       .  S
O624       Zr625   2.440       .  S
O624        H653   0.990       .  S
Zr625       O628   2.436       .  S
Zr625       O629   2.439       .  S
Zr625       O630   2.410       .  S
O626        C631   1.288       .  A
O627        H644   0.990       .  S
O627        H659   0.990       .  S
O628        H645   0.990       .  S
O629        H649   0.990       .  S
O629        H658   0.990       .  S
O630        C631   1.280       .  A
C631       C1256   1.479       .  S
O632        H651   0.991       .  S
O632        H655   0.990       .  S
O633        H647   0.990       .  S
O633        H654   0.990       .  S
O634        C638   1.290       .  A
O635        C638   1.283       .  A
O636        H646   0.990       .  S
O637        H650   0.990       .  S
C638       C1688   1.482       .  S
Zr661       O662   2.442       .  S
Zr661       O663   2.470       .  S
Zr661       O664   2.459       .  S
Zr661       O667   2.456       .  S
Zr661       O669   2.386       .  S
Zr661       O670   2.384       .  S
Zr661       O671   2.421       .  S
Zr661       O672   2.408       .  S
O662        H718   0.990       .  S
O662        H726   0.991       .  S
O663        C683   1.289       .  A
O664        C685   1.287       .  A
O665       Zr675   2.404       .  S
O665        C684   1.279       .  A
O666       Zr674   2.431       .  S
O666        C685   1.284       .  A
O667        C684   1.288       .  A
O668       Zr676   2.382       .  S
O668        C683   1.274       .  A
O669       Zr674   2.400       .  S
O669       Zr676   2.387       .  S
O670       Zr675   2.390       .  S
O670       Zr676   2.377       .  S
O670        H705   0.966       .  S
O671       Zr674   2.402       .  S
O671       Zr691   2.392       .  S
O671        H708   0.965       .  S
O672       Zr675   2.387       .  S
O672       Zr691   2.395       .  S
Zr673       O698   2.442       .  S
Zr673       O692   2.439       .  S
Zr673       O700   2.449       .  S
Zr673       O688   2.445       .  S
Zr673       O679   2.393       .  S
Zr673       O680   2.410       .  S
Zr673       O681   2.389       .  S
Zr673       O682   2.383       .  S
Zr674       O693   2.437       .  S
Zr674       O686   2.433       .  S
Zr674       O687   2.436       .  S
Zr674       O680   2.400       .  S
Zr674       O681   2.401       .  S
Zr675       O677   2.434       .  S
Zr675       O699   2.439       .  S
Zr675       O701   2.411       .  S
Zr675       O679   2.378       .  S
Zr675       O682   2.383       .  S
Zr676       O702   2.438       .  S
Zr676       O703   2.434       .  S
Zr676       O678   2.436       .  S
Zr676       O679   2.376       .  S
Zr676       O680   2.374       .  S
O677        H714   0.990       .  S
O678        H709   0.990       .  S
O678        H723   0.990       .  S
O680        H706   0.965       .  S
O681       Zr691   2.386       .  S
O682       Zr691   2.376       .  S
O682        H707   0.966       .  S
C683       C1163   1.474   1_554  S
C684       C1403   1.470       .  S
C685       C1208   1.476       .  S
O686        H722   0.990       .  S
O687        C689   1.285       .  A
O688        C689   1.285       .  A
C689       C1192   1.474       .  S
O690       Zr691   2.440       .  S
O690        H719   0.990       .  S
Zr691       O694   2.437       .  S
Zr691       O695   2.440       .  S
Zr691       O696   2.415       .  S
O692        C697   1.284       .  A
O693        H710   0.989       .  S
O693        H725   0.990       .  S
O694        H711   0.990       .  S
O695        H715   0.990       .  S
O695        H724   0.990       .  S
O696        C697   1.281       .  A
C697       C1176   1.474       .  S
O698        H717   0.991       .  S
O698        H721   0.990       .  S
O699        H713   0.990       .  S
O699        H720   0.990       .  S
O700        C704   1.286       .  A
O701        C704   1.281       .  A
O702        H712   0.990       .  S
O703        H716   0.990       .  S
C704       C1771   1.471       .  S
Zr727       O728   2.442       .  S
Zr727       O729   2.443       .  S
Zr727       O730   2.456       .  S
Zr727       O733   2.444       .  S
Zr727       O735   2.381       .  S
Zr727       O736   2.393       .  S
Zr727       O737   2.404       .  S
Zr727       O738   2.392       .  S
O728        H784   0.990       .  S
O728        H792   0.991       .  S
O729        C749   1.285       .  A
O730        C751   1.286       .  A
O731       Zr741   2.432       .  S
O731        C750   1.285       .  A
O732       Zr740   2.429       .  S
O732        C751   1.284       .  A
O733        C750   1.286       .  A
O734       Zr742   2.427       .  S
O734        C749   1.283       .  A
O735       Zr740   2.401       .  S
O735       Zr742   2.384       .  S
O736       Zr741   2.395       .  S
O736       Zr742   2.379       .  S
O736        H771   0.966       .  S
O737       Zr740   2.394       .  S
O737       Zr757   2.386       .  S
O737        H774   0.965       .  S
O738       Zr741   2.381       .  S
O738       Zr757   2.370       .  S
Zr739       O764   2.443       .  S
Zr739       O758   2.468       .  S
Zr739       O766   2.446       .  S
Zr739       O754   2.462       .  S
Zr739       O745   2.410       .  S
Zr739       O746   2.419       .  S
Zr739       O747   2.380       .  S
Zr739       O748   2.387       .  S
Zr740       O759   2.437       .  S
Zr740       O752   2.434       .  S
Zr740       O753   2.421       .  S
Zr740       O746   2.402       .  S
Zr740       O747   2.393       .  S
Zr741       O743   2.435       .  S
Zr741       O765   2.438       .  S
Zr741       O767   2.424       .  S
Zr741       O745   2.389       .  S
Zr741       O748   2.394       .  S
Zr742       O768   2.436       .  S
Zr742       O769   2.436       .  S
Zr742       O744   2.437       .  S
Zr742       O745   2.395       .  S
Zr742       O746   2.394       .  S
O743        H780   0.990       .  S
O744        H775   0.990       .  S
O744        H789   0.990       .  S
O746        H772   0.965       .  S
O747       Zr757   2.382       .  S
O748       Zr757   2.383       .  S
O748        H773   0.966       .  S
C749       C1179   1.479       .  S
C750       C1339   1.474       .  S
C751       C1144   1.482       .  S
O752        H788   0.990       .  S
O753        C755   1.282       .  A
O754        C755   1.288       .  A
C755       C1128   1.475       .  S
O756       Zr757   2.437       .  S
O756        H785   0.990       .  S
Zr757       O760   2.439       .  S
Zr757       O761   2.439       .  S
Zr757       O762   2.387       .  S
O758        C763   1.289       .  A
O759        H776   0.990       .  S
O759        H791   0.990       .  S
O760        H777   0.990       .  S
O761        H781   0.990       .  S
O761        H790   0.990       .  S
O762        C763   1.275       .  A
C763       C1160   1.474       .  S
O764        H783   0.991       .  S
O764        H787   0.990       .  S
O765        H779   0.990       .  S
O765        H786   0.990       .  S
O766        C770   1.286       .  A
O767        C770   1.283       .  A
O768        H778   0.990       .  S
O769        H782   0.991       .  S
C770       C1672   1.475       .  S
Zr793       O794   2.441       .  S
Zr793       O795   2.442       .  S
Zr793       O796   2.464       .  S
Zr793       O799   2.446       .  S
Zr793       O801   2.383       .  S
Zr793       O802   2.393       .  S
Zr793       O803   2.409   1_554  S
Zr793       O804   2.400       .  S
O794        H850   0.990       .  S
O794        H858   0.991       .  S
O795        C815   1.284       .  A
O796        C817   1.288       .  A
O797       Zr807   2.416       .  S
O797        C816   1.281       .  A
O798       Zr806   2.434   1_554  S
O798        C817   1.285       .  A
O799        C816   1.286       .  A
O800       Zr808   2.419       .  S
O800        C815   1.280       .  A
O801       Zr806   2.398   1_554  S
O801       Zr808   2.385       .  S
O802       Zr807   2.396       .  S
O802       Zr808   2.375       .  S
O802        H837   0.966       .  S
O803       Zr806   2.402       .  S
O803       Zr823   2.382       .  S
O803        H840   0.965       .  S
O804       Zr807   2.390       .  S
O804       Zr823   2.380   1_554  S
Zr805       O830   2.444       .  S
Zr805       O824   2.465       .  S
Zr805       O832   2.444       .  S
Zr805       O820   2.439       .  S
Zr805       O811   2.409   1_556  S
Zr805       O812   2.420   1_556  S
Zr805       O813   2.381       .  S
Zr805       O814   2.382       .  S
Zr806       O825   2.435       .  S
Zr806       O818   2.436   1_556  S
Zr806       O819   2.437       .  S
Zr806       O812   2.403   1_556  S
Zr806       O813   2.396       .  S
Zr807       O809   2.435   1_554  S
Zr807       O831   2.439       .  S
Zr807       O833   2.422   1_554  S
Zr807       O811   2.388       .  S
Zr807       O814   2.395   1_554  S
Zr808       O834   2.436       .  S
Zr808       O835   2.437       .  S
Zr808       O810   2.438       .  S
Zr808       O811   2.400       .  S
Zr808       O812   2.385       .  S
O809        H846   0.990       .  S
O810        H841   0.990       .  S
O810        H855   0.990       .  S
O812        H838   0.964       .  S
O813       Zr823   2.383       .  S
O814       Zr823   2.376       .  S
O814        H839   0.966       .  S
C815       C1115   1.475       .  S
C816       C1640   1.468       .  S
C817       C1211   1.482       .  S
O818        H854   0.990       .  S
O819        C821   1.285       .  A
O820        C821   1.284       .  A
C821       C1243   1.472       .  S
O822       Zr823   2.437       .  S
O822        H851   0.990       .  S
Zr823       O826   2.437       .  S
Zr823       O827   2.439       .  S
Zr823       O828   2.393       .  S
O824        C829   1.288       .  A
O825        H842   0.990       .  S
O825        H857   0.990       .  S
O826        H843   0.990       .  S
O827        H847   0.990       .  S
O827        H856   0.990       .  S
O828        C829   1.276       .  A
C829       C1096   1.476       .  S
O830        H849   0.991       .  S
O830        H853   0.990       .  S
O831        H845   0.990       .  S
O831        H852   0.990       .  S
O832        C836   1.285       .  A
O833        C836   1.281       .  A
O834        H844   0.990       .  S
O835        H848   0.990       .  S
C836       C1435   1.471       .  S
Zr859       O860   2.442       .  S
Zr859       O861   2.467       .  S
Zr859       O862   2.461       .  S
Zr859       O865   2.434       .  S
Zr859       O867   2.379       .  S
Zr859       O868   2.390       .  S
Zr859       O869   2.413       .  S
Zr859       O870   2.410       .  S
O860        H916   0.990       .  S
O860        H924   0.991       .  S
O861        C881   1.289       .  A
O862        C883   1.286       .  A
O863       Zr873   2.426       .  S
O863        C882   1.284       .  A
O864       Zr872   2.423       .  S
O864        C883   1.281       .  A
O865        C882   1.284       .  A
O866       Zr874   2.382       .  S
O866        C881   1.274       .  A
O867       Zr872   2.395       .  S
O867       Zr874   2.386       .  S
O868       Zr873   2.391       .  S
O868       Zr874   2.378       .  S
O868        H903   0.966       .  S
O869       Zr872   2.391       .  S
O869       Zr889   2.396       .  S
O869        H906   0.965       .  S
O870       Zr873   2.389       .  S
O870       Zr889   2.390       .  S
Zr871       O896   2.442       .  S
Zr871       O890   2.442       .  S
Zr871       O898   2.438       .  S
Zr871       O886   2.445       .  S
Zr871       O877   2.398       .  S
Zr871       O878   2.408       .  S
Zr871       O879   2.381       .  S
Zr871       O880   2.389       .  S
Zr872       O891   2.437       .  S
Zr872       O884   2.433       .  S
Zr872       O885   2.412       .  S
Zr872       O878   2.401       .  S
Zr872       O879   2.393       .  S
Zr873       O875   2.437       .  S
Zr873       O897   2.438       .  S
Zr873       O899   2.432       .  S
Zr873       O877   2.385       .  S
Zr873       O880   2.395       .  S
Zr874       O900   2.436       .  S
Zr874       O901   2.435       .  S
Zr874       O876   2.434       .  S
Zr874       O877   2.378       .  S
Zr874       O878   2.379       .  S
O875        H912   0.990       .  S
O876        H907   0.990       .  S
O876        H921   0.990       .  S
O878        H904   0.965       .  S
O879       Zr889   2.379       .  S
O880       Zr889   2.381       .  S
O880        H905   0.966       .  S
C881       C1099   1.472       .  S
C882       C1563   1.470       .  S
C883       C1147   1.471       .  S
O884        H920   0.989       .  S
O885        C887   1.281       .  A
O886        C887   1.284       .  A
C887       C1304   1.463       .  S
O888       Zr889   2.440       .  S
O888        H917   0.990       .  S
Zr889       O892   2.438       .  S
Zr889       O893   2.440       .  S
Zr889       O894   2.420       .  S
O890        C895   1.284       .  A
O891        H908   0.990       .  S
O891        H923   0.990       .  S
O892        H909   0.990       .  S
O893        H913   0.990       .  S
O893        H922   0.990       .  S
O894        C895   1.282       .  A
C895       C1112   1.476       .  S
O896        H915   0.991       .  S
O896        H919   0.990       .  S
O897        H911   0.990       .  S
O897        H918   0.990       .  S
O898        C902   1.284       .  A
O899        C902   1.285       .  A
O900        H910   0.990       .  S
O901        H914   0.990       .  S
C902       C1515   1.470       .  S
Zr925       O926   2.444       .  S
Zr925       O927   2.466   1_455  S
Zr925       O928   2.440   1_455  S
Zr925       O931   2.437       .  S
Zr925       O933   2.375   1_455  S
Zr925       O934   2.385       .  S
Zr925       O935   2.417   1_455  S
Zr925       O936   2.406       .  S
O926        H982   0.990   1_455  S
O926        H990   0.991   1_455  S
O927        C947   1.288       .  A
O928        C949   1.284       .  A
O929       Zr939   2.429       .  S
O929        C948   1.285       .  A
O930       Zr938   2.431       .  S
O930        C949   1.283       .  A
O931        C948   1.284       .  A
O932       Zr940   2.395       .  S
O932        C947   1.275       .  A
O933       Zr938   2.397       .  S
O933       Zr940   2.381       .  S
O934       Zr939   2.396       .  S
O934       Zr940   2.381   1_455  S
O934        H969   0.966       .  S
O935       Zr938   2.396       .  S
O935       Zr955   2.397   1_655  S
O935        H972   0.965       .  S
O936       Zr939   2.387       .  S
O936       Zr955   2.391       .  S
Zr937       O962   2.444       .  S
Zr937       O956   2.434       .  S
Zr937       O964   2.441       .  S
Zr937       O952   2.451   1_455  S
Zr937       O943   2.400       .  S
Zr937       O944   2.409   1_455  S
Zr937       O945   2.385   1_455  S
Zr937       O946   2.389       .  S
Zr938       O957   2.436       .  S
Zr938       O950   2.436       .  S
Zr938       O951   2.427       .  S
Zr938       O944   2.403       .  S
Zr938       O945   2.395       .  S
Zr939       O941   2.436       .  S
Zr939       O963   2.436       .  S
Zr939       O965   2.428       .  S
Zr939       O943   2.391       .  S
Zr939       O946   2.395       .  S
Zr940       O966   2.439   1_655  S
Zr940       O967   2.433   1_655  S
Zr940       O942   2.435       .  S
Zr940       O943   2.387   1_655  S
Zr940       O944   2.381       .  S
O941        H978   0.990       .  S
O942        H973   0.990       .  S
O942        H987   0.990       .  S
O944        H970   0.965       .  S
O945       Zr955   2.381   1_655  S
O946       Zr955   2.379       .  S
O946        H971   0.966       .  S
C947       C1067   1.477       .  S
C948       C1499   1.471       .  S
C949       C1288   1.472       .  S
O950        H986   0.990       .  S
O951        C953   1.283       .  A
O952        C953   1.286       .  A
C953       C1195   1.471       .  S
O954       Zr955   2.438       .  S
O954        H983   0.991       .  S
Zr955       O958   2.439   1_455  S
Zr955       O959   2.440       .  S
Zr955       O960   2.419       .  S
O956        C961   1.283       .  A
O957        H974   0.990       .  S
O957        H989   0.990       .  S
O958        H975   0.990       .  S
O959        H979   0.990       .  S
O959        H988   0.990       .  S
O960        C961   1.281       .  A
C961       C1080   1.473       .  S
O962        H981   0.991   1_455  S
O962        H985   0.990   1_455  S
O963        H977   0.990       .  S
O963        H984   0.990       .  S
O964        C968   1.285       .  A
O965        C968   1.283       .  A
O966        H976   0.990       .  S
O967        H980   0.990   1_455  S
C968       C1624   1.472       .  S
Zr991       O992   2.441   1_655  S
Zr991       O993   2.435   1_655  S
Zr991       O994   2.449       .  S
Zr991       O997   2.437   1_655  S
Zr991       O999   2.382       .  S
Zr991      O1000   2.388   1_655  S
Zr991      O1001   2.404       .  S
Zr991      O1002   2.395   1_655  S
O992       H1048   0.990   1_455  S
O992       H1056   0.991   1_455  S
O993       C1013   1.283       .  A
O994       C1015   1.286       .  A
O995      Zr1005   2.424       .  S
O995       C1014   1.284       .  A
O996      Zr1004   2.426       .  S
O996       C1015   1.283       .  A
O997       C1014   1.284       .  A
O998      Zr1006   2.410       .  S
O998       C1013   1.280       .  A
O999      Zr1004   2.398       .  S
O999      Zr1006   2.384   1_655  S
O1000     Zr1005   2.388       .  S
O1000     Zr1006   2.377       .  S
O1000      H1035   0.966       .  S
O1001     Zr1004   2.395       .  S
O1001     Zr1021   2.377       .  S
O1001      H1038   0.964       .  S
O1002     Zr1005   2.381       .  S
O1002     Zr1021   2.379   1_455  S
Zr1003     O1028   2.441   1_655  S
Zr1003     O1022   2.476       .  S
Zr1003     O1030   2.456   1_655  S
Zr1003     O1018   2.472       .  S
Zr1003     O1009   2.412   1_655  S
Zr1003     O1010   2.421       .  S
Zr1003     O1011   2.382       .  S
Zr1003     O1012   2.388   1_655  S
Zr1004     O1023   2.435       .  S
Zr1004     O1016   2.436       .  S
Zr1004     O1017   2.419       .  S
Zr1004     O1010   2.405       .  S
Zr1004     O1011   2.398       .  S
Zr1005     O1007   2.436       .  S
Zr1005     O1029   2.436       .  S
Zr1005     O1031   2.411       .  S
Zr1005     O1009   2.392       .  S
Zr1005     O1012   2.390       .  S
Zr1006     O1032   2.436       .  S
Zr1006     O1033   2.438       .  S
Zr1006     O1008   2.436   1_455  S
Zr1006     O1009   2.392       .  S
Zr1006     O1010   2.389   1_455  S
O1007      H1044   0.990       .  S
O1008      H1039   0.990       .  S
O1008      H1053   0.990       .  S
O1010      H1036   0.965       .  S
O1011     Zr1021   2.387       .  S
O1012     Zr1021   2.376   1_455  S
O1012      H1037   0.966       .  S
C1013      C1083   1.471       .  S
C1014      C1419   1.472       .  S
C1015      C1227   1.473       .  S
O1016      H1052   0.990       .  S
O1017      C1019   1.282       .  A
O1018      C1019   1.290       .  A
C1019      C1131   1.478       .  S
O1020     Zr1021   2.438       .  S
O1020      H1049   0.990       .  S
Zr1021     O1024   2.436       .  S
Zr1021     O1025   2.440   1_655  S
Zr1021     O1026   2.385       .  S
O1022      C1027   1.290       .  A
O1023      H1040   0.990       .  S
O1023      H1055   0.990       .  S
O1024      H1041   0.990       .  S
O1025      H1045   0.990       .  S
O1025      H1054   0.990       .  S
O1026      C1027   1.275       .  A
C1027      C1064   1.478       .  S
O1028      H1047   0.990   1_455  S
O1028      H1051   0.990   1_455  S
O1029      H1043   0.990       .  S
O1029      H1050   0.990       .  S
O1030      C1034   1.288       .  A
O1031      C1034   1.281       .  A
O1032      H1042   0.990       .  S
O1033      H1046   0.990       .  S
C1034      C1544   1.471       .  S
C1057      S1063   1.698       .  A
C1057      C1062   1.387       .  A
C1057      C1058   1.402       .  A
C1058      C1059   1.400       .  A
C1058      H1069   1.083       .  S
C1059      C1068   1.375       .  A
C1059      C1060   1.387       .  A
C1060      S1066   1.703       .  A
C1060      C1061   1.405       .  A
C1061      C1062   1.403       .  A
C1061      H1070   1.083       .  S
C1062      C1065   1.379       .  A
S1063      C1064   1.728       .  A
C1064      C1065   1.388       .  A
C1065      H1071   1.083       .  S
S1066      C1067   1.729       .  A
C1067      C1068   1.386       .  A
C1068      H1072   1.083       .  S
C1073      S1079   1.704       .  A
C1073      C1078   1.387       .  A
C1073      C1074   1.399   1_554  A
C1074      C1075   1.400       .  A
C1074      H1085   1.083       .  S
C1075      C1084   1.367       .  A
C1075      C1076   1.387       .  A
C1076      S1082   1.709       .  A
C1076      C1077   1.402   1_556  A
C1077      C1078   1.404       .  A
C1077      H1086   1.083       .  S
C1078      C1081   1.371       .  A
S1079      C1080   1.723       .  A
C1080      C1081   1.389       .  A
C1081      H1087   1.083       .  S
S1082      C1083   1.724       .  A
C1083      C1084   1.386       .  A
C1084      H1088   1.083       .  S
C1089      S1095   1.697       .  A
C1089      C1094   1.387       .  A
C1089      C1090   1.402       .  A
C1090      C1091   1.399       .  A
C1090      H1101   1.083       .  S
C1091      C1100   1.375       .  A
C1091      C1092   1.387       .  A
C1092      S1098   1.698       .  A
C1092      C1093   1.403       .  A
C1093      C1094   1.401       .  A
C1093      H1102   1.083       .  S
C1094      C1097   1.377       .  A
S1095      C1096   1.727       .  A
C1096      C1097   1.387       .  A
C1097      H1103   1.083       .  S
S1098      C1099   1.728       .  A
C1099      C1100   1.384       .  A
C1100      H1104   1.083       .  S
C1105      S1111   1.709       .  A
C1105      C1110   1.386       .  A
C1105      C1106   1.402       .  A
C1106      C1107   1.403       .  A
C1106      H1117   1.083       .  S
C1107      C1116   1.370       .  A
C1107      C1108   1.387       .  A
C1108      S1114   1.707       .  A
C1108      C1109   1.401       .  A
C1109      C1110   1.402       .  A
C1109      H1118   1.083       .  S
C1110      C1113   1.369       .  A
S1111      C1112   1.725       .  A
C1112      C1113   1.388       .  A
C1113      H1119   1.083       .  S
S1114      C1115   1.723       .  A
C1115      C1116   1.389       .  A
C1116      H1120   1.083       .  S
C1121      S1127   1.707       .  A
C1121      C1126   1.387       .  A
C1121      C1122   1.403       .  A
C1122      C1123   1.404       .  A
C1122      H1133   1.083       .  S
C1123      C1132   1.372       .  A
C1123      C1124   1.386       .  A
C1124      S1130   1.710       .  A
C1124      C1125   1.403       .  A
C1125      C1126   1.404       .  A
C1125      H1134   1.083       .  S
C1126      C1129   1.374       .  A
S1127      C1128   1.726       .  A
C1128      C1129   1.388       .  A
C1129      H1135   1.083       .  S
S1130      C1131   1.724       .  A
C1131      C1132   1.390       .  A
C1132      H1136   1.083       .  S
C1137      S1143   1.710       .  A
C1137      C1142   1.386       .  A
C1137      C1138   1.405       .  A
C1138      C1139   1.405       .  A
C1138      H1149   1.083       .  S
C1139      C1148   1.375       .  A
C1139      C1140   1.387       .  A
C1140      S1146   1.709       .  A
C1140      C1141   1.403       .  A
C1141      C1142   1.404       .  A
C1141      H1150   1.083       .  S
C1142      C1145   1.374       .  A
S1143      C1144   1.726       .  A
C1144      C1145   1.390       .  A
C1145      H1151   1.083       .  S
S1146      C1147   1.722       .  A
C1147      C1148   1.387       .  A
C1148      H1152   1.083       .  S
C1153      S1159   1.698       .  A
C1153      C1158   1.387       .  A
C1153      C1154   1.402       .  A
C1154      C1155   1.400       .  A
C1154      H1165   1.083       .  S
C1155      C1164   1.375       .  A
C1155      C1156   1.387       .  A
C1156      S1162   1.698       .  A
C1156      C1157   1.402       .  A
C1157      C1158   1.400       .  A
C1157      H1166   1.083       .  S
C1158      C1161   1.375       .  A
S1159      C1160   1.728       .  A
C1160      C1161   1.386       .  A
C1161      H1167   1.083       .  S
S1162      C1163   1.728       .  A
C1163      C1164   1.385       .  A
C1164      H1168   1.083       .  S
C1169      S1175   1.708       .  A
C1169      C1174   1.386       .  A
C1169      C1170   1.401       .  A
C1170      C1171   1.403       .  A
C1170      H1181   1.083       .  S
C1171      C1180   1.371       .  A
C1171      C1172   1.386       .  A
C1172      S1178   1.709       .  A
C1172      C1173   1.403       .  A
C1173      C1174   1.404       .  A
C1173      H1182   1.083       .  S
C1174      C1177   1.370       .  A
S1175      C1176   1.723       .  A
C1176      C1177   1.389       .  A
C1177      H1183   1.083       .  S
S1178      C1179   1.726       .  A
C1179      C1180   1.389       .  A
C1180      H1184   1.083       .  S
C1185      S1191   1.706       .  A
C1185      C1190   1.386       .  A
C1185      C1186   1.403       .  A
C1186      C1187   1.403       .  A
C1186      H1197   1.083       .  S
C1187      C1196   1.373       .  A
C1187      C1188   1.387       .  A
C1188      S1194   1.705       .  A
C1188      C1189   1.402       .  A
C1189      C1190   1.402       .  A
C1189      H1198   1.083       .  S
C1190      C1193   1.371       .  A
S1191      C1192   1.725       .  A
C1192      C1193   1.387       .  A
C1193      H1199   1.083       .  S
S1194      C1195   1.723       .  A
C1195      C1196   1.388       .  A
C1196      H1200   1.083       .  S
C1201      S1207   1.709       .  A
C1201      C1206   1.387       .  A
C1201      C1202   1.402       .  A
C1202      C1203   1.403       .  A
C1202      H1213   1.083       .  S
C1203      C1212   1.372       .  A
C1203      C1204   1.386       .  A
C1204      S1210   1.713       .  A
C1204      C1205   1.405       .  A
C1205      C1206   1.406       .  A
C1205      H1214   1.083       .  S
C1206      C1209   1.374       .  A
S1207      C1208   1.724       .  A
C1208      C1209   1.389       .  A
C1209      H1215   1.083       .  S
S1210      C1211   1.727       .  A
C1211      C1212   1.389       .  A
C1212      H1216   1.083       .  S
C1217      S1223   1.707       .  A
C1217      C1222   1.387       .  A
C1217      C1218   1.405       .  A
C1218      C1219   1.404       .  A
C1218      H1229   1.083       .  S
C1219      C1228   1.374       .  A
C1219      C1220   1.387       .  A
C1220      S1226   1.706       .  A
C1220      C1221   1.402       .  A
C1221      C1222   1.402       .  A
C1221      H1230   1.083       .  S
C1222      C1225   1.375       .  A
S1223      C1224   1.728       .  A
C1224      C1225   1.387       .  A
C1225      H1231   1.083       .  S
S1226      C1227   1.724       .  A
C1227      C1228   1.389       .  A
C1228      H1232   1.083       .  S
C1233      S1239   1.705       .  A
C1233      C1238   1.387       .  A
C1233      C1234   1.402       .  A
C1234      C1235   1.402       .  A
C1234      H1245   1.083       .  S
C1235      C1244   1.371       .  A
C1235      C1236   1.387       .  A
C1236      S1242   1.704       .  A
C1236      C1237   1.401       .  A
C1237      C1238   1.402       .  A
C1237      H1246   1.083       .  S
C1238      C1241   1.372       .  A
S1239      C1240   1.725       .  A
C1240      C1241   1.386       .  A
C1241      H1247   1.083       .  S
S1242      C1243   1.725       .  A
C1243      C1244   1.387       .  A
C1244      H1248   1.083       .  S
C1249      S1255   1.712       .  A
C1249      C1254   1.386       .  A
C1249      C1250   1.401       .  A
C1250      C1251   1.404       .  A
C1250      H1261   1.083       .  S
C1251      C1260   1.369       .  A
C1251      C1252   1.386       .  A
C1252      S1258   1.715       .  A
C1252      C1253   1.404       .  A
C1253      C1254   1.406       .  A
C1253      H1262   1.083       .  S
C1254      C1257   1.371       .  A
S1255      C1256   1.723       .  A
C1256      C1257   1.391       .  A
C1257      H1263   1.083       .  S
S1258      C1259   1.726       .  A
C1259      C1260   1.390       .  A
C1260      H1264   1.083       .  S
C1265      S1271   1.712       .  A
C1265      C1270   1.386       .  A
C1265      C1266   1.400       .  A
C1266      C1267   1.404       .  A
C1266      H1277   1.083       .  S
C1267      C1276   1.366       .  A
C1267      C1268   1.386       .  A
C1268      S1274   1.713       .  A
C1268      C1269   1.400       .  A
C1269      C1270   1.404       .  A
C1269      H1278   1.083       .  S
C1270      C1273   1.365       .  A
S1271      C1272   1.722       .  A
C1272      C1273   1.389       .  A
C1273      H1279   1.083       .  S
S1274      C1275   1.723       .  A
C1275      C1276   1.390       .  A
C1276      H1280   1.083       .  S
C1281      S1287   1.705       .  A
C1281      C1286   1.387       .  A
C1281      C1282   1.402       .  A
C1282      C1283   1.403       .  A
C1282      H1293   1.083       .  S
C1283      C1292   1.371       .  A
C1283      C1284   1.387       .  A
C1284      S1290   1.708       .  A
C1284      C1285   1.402       .  A
C1285      C1286   1.402       .  A
C1285      H1294   1.083       .  S
C1286      C1289   1.372       .  A
S1287      C1288   1.724       .  A
C1288      C1289   1.387       .  A
C1289      H1295   1.083       .  S
S1290      C1291   1.723       .  A
C1291      C1292   1.388       .  A
C1292      H1296   1.083       .  S
C1297      S1303   1.701       .  A
C1297      C1302   1.388       .  A
C1297      C1298   1.398       .  A
C1298      C1299   1.399       .  A
C1298      H1309   1.083       .  S
C1299      C1308   1.367       .  A
C1299      C1300   1.387       .  A
C1300      S1306   1.707       .  A
C1300      C1301   1.402       .  A
C1301      C1302   1.403       .  A
C1301      H1310   1.083       .  S
C1302      C1305   1.371       .  A
S1303      C1304   1.719       .  A
C1304      C1305   1.386       .  A
C1305      H1311   1.083       .  S
S1306      C1307   1.724       .  A
C1307      C1308   1.386       .  A
C1308      H1312   1.083       .  S
C1313      S1319   1.711       .  A
C1313      C1318   1.386       .  A
C1313      C1314   1.403       .  A
C1314      C1315   1.404       .  A
C1314      H1325   1.083       .  S
C1315      C1324   1.371       .  A
C1315      C1316   1.387       .  A
C1316      S1322   1.707       .  A
C1316      C1317   1.400       .  A
C1317      C1318   1.402       .  A
C1317      H1326   1.083       .  S
C1318      C1321   1.368       .  A
S1319      C1320   1.725       .  A
C1320      C1321   1.388       .  A
C1321      H1327   1.083       .  S
S1322      C1323   1.723       .  A
C1323      C1324   1.387       .  A
C1324      H1328   1.083       .  S
C1329      S1335   1.706       .  A
C1329      C1334   1.387       .  A
C1329      C1330   1.401       .  A
C1330      C1331   1.402       .  A
C1330      H1341   1.083       .  S
C1331      C1340   1.369       .  A
C1331      C1332   1.386       .  A
C1332      S1338   1.709       .  A
C1332      C1333   1.403       .  A
C1333      C1334   1.404       .  A
C1333      H1342   1.083       .  S
C1334      C1337   1.373       .  A
S1335      C1336   1.724       .  A
C1336      C1337   1.387       .  A
C1337      H1343   1.083       .  S
S1338      C1339   1.725       .  A
C1339      C1340   1.387       .  A
C1340      H1344   1.083       .  S
C1345      S1351   1.705       .  A
C1345      C1350   1.387   1_545  A
C1345      C1346   1.403       .  A
C1346      C1347   1.403       .  A
C1346      H1357   1.083       .  S
C1347      C1356   1.376       .  A
C1347      C1348   1.387   1_545  A
C1348      S1354   1.702       .  A
C1348      C1349   1.401       .  A
C1349      C1350   1.400       .  A
C1349      H1358   1.083       .  S
C1350      C1353   1.371       .  A
S1351      C1352   1.725       .  A
C1352      C1353   1.386   1_545  A
C1353      H1359   1.083       .  S
S1354      C1355   1.725   1_565  A
C1355      C1356   1.389       .  A
C1356      H1360   1.083       .  S
C1361      S1367   1.707       .  A
C1361      C1366   1.387   1_565  A
C1361      C1362   1.405       .  A
C1362      C1363   1.405       .  A
C1362      H1373   1.083       .  S
C1363      C1372   1.378       .  A
C1363      C1364   1.387   1_565  A
C1364      S1370   1.703       .  A
C1364      C1365   1.402       .  A
C1365      C1366   1.401       .  A
C1365      H1374   1.083       .  S
C1366      C1369   1.373       .  A
S1367      C1368   1.727       .  A
C1368      C1369   1.386   1_565  A
C1369      H1375   1.083       .  S
S1370      C1371   1.727       .  A
C1371      C1372   1.390   1_545  A
C1372      H1376   1.083       .  S
C1377      S1383   1.714       .  A
C1377      C1382   1.386       .  A
C1377      C1378   1.409       .  A
C1378      C1379   1.409       .  A
C1378      H1389   1.083       .  S
C1379      C1388   1.380       .  A
C1379      C1380   1.387       .  A
C1380      S1386   1.701       .  A
C1380      C1381   1.399       .  A
C1381      C1382   1.399       .  A
C1381      H1390   1.083       .  S
C1382      C1385   1.370       .  A
S1383      C1384   1.729       .  A
C1384      C1385   1.385       .  A
C1385      H1391   1.083       .  S
S1386      C1387   1.723       .  A
C1387      C1388   1.392       .  A
C1388      H1392   1.083       .  S
C1393      S1399   1.710       .  A
C1393      C1398   1.387       .  A
C1393      C1394   1.405       .  A
C1394      C1395   1.404       .  A
C1394      H1405   1.083       .  S
C1395      C1404   1.374       .  A
C1395      C1396   1.387       .  A
C1396      S1402   1.701       .  A
C1396      C1397   1.399       .  A
C1397      C1398   1.400       .  A
C1397      H1406   1.083       .  S
C1398      C1401   1.370       .  A
S1399      C1400   1.726       .  A
C1400      C1401   1.385       .  A
C1401      H1407   1.083       .  S
S1402      C1403   1.723       .  A
C1403      C1404   1.387       .  A
C1404      H1408   1.083       .  S
C1409      S1415   1.700       .  A
C1409      C1414   1.388       .  A
C1409      C1410   1.396       .  A
C1410      C1411   1.397       .  A
C1410      H1421   1.083       .  S
C1411      C1420   1.365       .  A
C1411      C1412   1.387       .  A
C1412      S1418   1.711       .  A
C1412      C1413   1.405       .  A
C1413      C1414   1.406       .  A
C1413      H1422   1.083       .  S
C1414      C1417   1.374       .  A
S1415      C1416   1.719       .  A
C1416      C1417   1.389       .  A
C1417      H1423   1.083       .  S
S1418      C1419   1.727       .  A
C1419      C1420   1.384       .  A
C1420      H1424   1.083       .  S
C1425      S1431   1.708       .  A
C1425      C1430   1.387       .  A
C1425      C1426   1.402       .  A
C1426      C1427   1.402       .  A
C1426      H1437   1.083       .  S
C1427      C1436   1.371       .  A
C1427      C1428   1.387       .  A
C1428      S1434   1.708       .  A
C1428      C1429   1.402       .  A
C1429      C1430   1.403       .  A
C1429      H1438   1.083       .  S
C1430      C1433   1.372       .  A
S1431      C1432   1.724       .  A
C1432      C1433   1.389       .  A
C1433      H1439   1.083       .  S
S1434      C1435   1.724       .  A
C1435      C1436   1.385       .  A
C1436      H1440   1.083       .  S
C1441      S1447   1.705       .  A
C1441      C1446   1.387       .  A
C1441      C1442   1.401       .  A
C1442      C1443   1.402       .  A
C1442      H1453   1.083       .  S
C1443      C1452   1.370       .  A
C1443      C1444   1.387       .  A
C1444      S1450   1.704       .  A
C1444      C1445   1.400       .  A
C1445      C1446   1.401       .  A
C1445      H1454   1.083       .  S
C1446      C1449   1.369       .  A
S1447      C1448   1.723       .  A
C1448      C1449   1.385       .  A
C1449      H1455   1.083       .  S
S1450      C1451   1.723       .  A
C1451      C1452   1.388       .  A
C1452      H1456   1.083       .  S
C1457      S1463   1.713       .  A
C1457      C1462   1.386       .  A
C1457      C1458   1.401       .  A
C1458      C1459   1.404       .  A
C1458      H1469   1.083       .  S
C1459      C1468   1.367       .  A
C1459      C1460   1.386       .  A
C1460      S1466   1.712       .  A
C1460      C1461   1.401       .  A
C1461      C1462   1.404       .  A
C1461      H1470   1.083       .  S
C1462      C1465   1.368       .  A
S1463      C1464   1.723       .  A
C1464      C1465   1.390       .  A
C1465      H1471   1.083       .  S
S1466      C1467   1.723       .  A
C1467      C1468   1.389       .  A
C1468      H1472   1.083       .  S
C1473      S1479   1.713       .  A
C1473      C1478   1.386       .  A
C1473      C1474   1.403       .  A
C1474      C1475   1.406       .  A
C1474      H1485   1.083       .  S
C1475      C1484   1.369       .  A
C1475      C1476   1.386       .  A
C1476      S1482   1.711       .  A
C1476      C1477   1.400       .  A
C1477      C1478   1.403       .  A
C1477      H1486   1.083       .  S
C1478      C1481   1.366       .  A
S1479      C1480   1.724       .  A
C1480      C1481   1.389       .  A
C1481      H1487   1.083       .  S
S1482      C1483   1.722       .  A
C1483      C1484   1.391       .  A
C1484      H1488   1.083       .  S
C1489      S1495   1.701       .  A
C1489      C1494   1.387       .  A
C1489      C1490   1.397       .  A
C1490      C1491   1.398       .  A
C1490      H1501   1.083       .  S
C1491      C1500   1.366       .  A
C1491      C1492   1.387       .  A
C1492      S1498   1.710       .  A
C1492      C1493   1.404       .  A
C1493      C1494   1.405       .  A
C1493      H1502   1.083       .  S
C1494      C1497   1.372       .  A
S1495      C1496   1.721       .  A
C1496      C1497   1.388       .  A
C1497      H1503   1.083       .  S
S1498      C1499   1.726       .  A
C1499      C1500   1.384       .  A
C1500      H1504   1.083       .  S
C1505      S1511   1.716       .  A
C1505      C1510   1.386       .  A
C1505      C1506   1.407       .  A
C1506      C1507   1.408       .  A
C1506      H1517   1.083       .  S
C1507      C1516   1.375       .  A
C1507      C1508   1.387       .  A
C1508      S1514   1.704       .  A
C1508      C1509   1.397       .  A
C1509      C1510   1.399       .  A
C1509      H1518   1.083       .  S
C1510      C1513   1.365       .  A
S1511      C1512   1.728       .  A
C1512      C1513   1.386       .  A
C1513      H1519   1.083       .  S
S1514      C1515   1.719       .  A
C1515      C1516   1.390       .  A
C1516      H1520   1.083       .  S
C1521      S1527   1.709       .  A
C1521      C1526   1.387       .  A
C1521      C1522   1.403       .  A
C1522      C1523   1.404       .  A
C1522      H1533   1.083       .  S
C1523      C1532   1.373       .  A
C1523      C1524   1.387       .  A
C1524      S1530   1.706       .  A
C1524      C1525   1.401       .  A
C1525      C1526   1.401       .  A
C1525      H1534   1.083       .  S
C1526      C1529   1.369       .  A
S1527      C1528   1.723       .  A
C1528      C1529   1.386       .  A
C1529      H1535   1.083       .  S
S1530      C1531   1.724       .  A
C1531      C1532   1.389       .  A
C1532      H1536   1.083       .  S
C1537      S1543   1.701       .  A
C1537      C1542   1.387       .  A
C1537      C1538   1.399       .  A
C1538      C1539   1.400       .  A
C1538      H1549   1.083       .  S
C1539      C1548   1.368       .  A
C1539      C1540   1.387       .  A
C1540      S1546   1.710       .  A
C1540      C1541   1.404       .  A
C1541      C1542   1.404       .  A
C1541      H1550   1.083       .  S
C1542      C1545   1.374       .  A
S1543      C1544   1.723       .  A
C1544      C1545   1.388       .  A
C1545      H1551   1.083       .  S
S1546      C1547   1.725       .  A
C1547      C1548   1.386       .  A
C1548      H1552   1.083       .  S
C1553      S1559   1.704       .  A
C1553      C1558   1.388       .  A
C1553      C1554   1.398       .  A
C1554      C1555   1.400       .  A
C1554      H1565   1.083       .  S
C1555      C1564   1.366       .  A
C1555      C1556   1.387       .  A
C1556      S1562   1.707       .  A
C1556      C1557   1.401       .  A
C1557      C1558   1.402       .  A
C1557      H1566   1.083       .  S
C1558      C1561   1.368       .  A
S1559      C1560   1.721       .  A
C1560      C1561   1.385       .  A
C1561      H1567   1.083       .  S
S1562      C1563   1.725       .  A
C1563      C1564   1.385       .  A
C1564      H1568   1.083       .  S
C1569      S1575   1.711       .  A
C1569      C1574   1.386       .  A
C1569      C1570   1.406       .  A
C1570      C1571   1.407       .  A
C1570      H1581   1.083       .  S
C1571      C1580   1.376       .  A
C1571      C1572   1.387       .  A
C1572      S1578   1.705       .  A
C1572      C1573   1.400       .  A
C1573      C1574   1.401       .  A
C1573      H1582   1.083       .  S
C1574      C1577   1.372       .  A
S1575      C1576   1.727       .  A
C1576      C1577   1.387       .  A
C1577      H1583   1.083       .  S
S1578      C1579   1.721       .  A
C1579      C1580   1.389       .  A
C1580      H1584   1.083       .  S
C1585      S1591   1.703       .  A
C1585      C1590   1.387       .  A
C1585      C1586   1.404       .  A
C1586      C1587   1.402       .  A
C1586      H1597   1.083       .  S
C1587      C1596   1.375       .  A
C1587      C1588   1.387       .  A
C1588      S1594   1.698       .  A
C1588      C1589   1.399       .  A
C1589      C1590   1.398       .  A
C1589      H1598   1.083       .  S
C1590      C1593   1.371       .  A
S1591      C1592   1.729       .  A
C1592      C1593   1.383       .  A
C1593      H1599   1.083       .  S
S1594      C1595   1.726       .  A
C1595      C1596   1.387       .  A
C1596      H1600   1.083       .  S
C1601      S1607   1.703       .  A
C1601      C1606   1.387       .  A
C1601      C1602   1.404       .  A
C1602      C1603   1.402       .  A
C1602      H1613   1.083       .  S
C1603      C1612   1.376       .  A
C1603      C1604   1.387       .  A
C1604      S1610   1.699       .  A
C1604      C1605   1.401       .  A
C1605      C1606   1.399       .  A
C1605      H1614   1.083       .  S
C1606      C1609   1.373       .  A
S1607      C1608   1.727       .  A
C1608      C1609   1.385       .  A
C1609      H1615   1.083       .  S
S1610      C1611   1.727       .  A
C1611      C1612   1.387       .  A
C1612      H1616   1.083       .  S
C1617      S1623   1.703       .  A
C1617      C1622   1.387       .  A
C1617      C1618   1.398       .  A
C1618      C1619   1.399       .  A
C1618      H1629   1.083       .  S
C1619      C1628   1.367       .  A
C1619      C1620   1.386       .  A
C1620      S1626   1.711       .  A
C1620      C1621   1.405       .  A
C1621      C1622   1.406       .  A
C1621      H1630   1.083       .  S
C1622      C1625   1.374       .  A
S1623      C1624   1.722       .  A
C1624      C1625   1.389       .  A
C1625      H1631   1.083       .  S
S1626      C1627   1.725       .  A
C1627      C1628   1.385       .  A
C1628      H1632   1.083       .  S
C1633      S1639   1.705       .  A
C1633      C1638   1.387       .  A
C1633      C1634   1.399       .  A
C1634      C1635   1.401       .  A
C1634      H1645   1.083       .  S
C1635      C1644   1.369       .  A
C1635      C1636   1.386       .  A
C1636      S1642   1.710       .  A
C1636      C1637   1.404       .  A
C1637      C1638   1.404       .  A
C1637      H1646   1.083       .  S
C1638      C1641   1.372       .  A
S1639      C1640   1.722       .  A
C1640      C1641   1.386       .  A
C1641      H1647   1.083       .  S
S1642      C1643   1.726       .  A
C1643      C1644   1.386       .  A
C1644      H1648   1.083       .  S
C1649      S1655   1.707       .  A
C1649      C1654   1.387       .  A
C1649      C1650   1.401       .  A
C1650      C1651   1.402       .  A
C1650      H1661   1.083       .  S
C1651      C1660   1.368       .  A
C1651      C1652   1.386       .  A
C1652      S1658   1.712       .  A
C1652      C1653   1.404       .  A
C1653      C1654   1.406       .  A
C1653      H1662   1.083       .  S
C1654      C1657   1.373       .  A
S1655      C1656   1.723       .  A
C1656      C1657   1.388       .  A
C1657      H1663   1.083       .  S
S1658      C1659   1.725       .  A
C1659      C1660   1.388       .  A
C1660      H1664   1.083       .  S
C1665      S1671   1.708       .  A
C1665      C1670   1.387       .  A
C1665      C1666   1.403       .  A
C1666      C1667   1.403       .  A
C1666      H1677   1.083       .  S
C1667      C1676   1.374       .  A
C1667      C1668   1.387       .  A
C1668      S1674   1.706       .  A
C1668      C1669   1.402       .  A
C1669      C1670   1.402       .  A
C1669      H1678   1.083       .  S
C1670      C1673   1.371       .  A
S1671      C1672   1.724       .  A
C1672      C1673   1.388       .  A
C1673      H1679   1.083       .  S
S1674      C1675   1.724       .  A
C1675      C1676   1.387       .  A
C1676      H1680   1.083       .  S
C1681      S1687   1.707       .  A
C1681      C1686   1.387       .  A
C1681      C1682   1.404       .  A
C1682      C1683   1.404       .  A
C1682      H1693   1.083       .  S
C1683      C1692   1.374       .  A
C1683      C1684   1.386       .  A
C1684      S1690   1.714       .  A
C1684      C1685   1.408       .  A
C1685      C1686   1.408       .  A
C1685      H1694   1.083       .  S
C1686      C1689   1.380       .  A
S1687      C1688   1.726       .  A
C1688      C1689   1.391       .  A
C1689      H1695   1.083       .  S
S1690      C1691   1.727       .  A
C1691      C1692   1.389       .  A
C1692      H1696   1.083       .  S
C1697      S1703   1.706       .  A
C1697      C1702   1.387       .  A
C1697      C1698   1.402       .  A
C1698      C1699   1.403       .  A
C1698      H1709   1.083       .  S
C1699      C1708   1.372       .  A
C1699      C1700   1.387       .  A
C1700      S1706   1.707       .  A
C1700      C1701   1.403       .  A
C1701      C1702   1.403       .  A
C1701      H1710   1.083       .  S
C1702      C1705   1.372       .  A
S1703      C1704   1.724       .  A
C1704      C1705   1.388       .  A
C1705      H1711   1.083       .  S
S1706      C1707   1.725       .  A
C1707      C1708   1.388       .  A
C1708      H1712   1.083       .  S
C1713      S1719   1.708       .  A
C1713      C1718   1.387       .  A
C1713      C1714   1.402       .  A
C1714      C1715   1.403       .  A
C1714      H1725   1.083       .  S
C1715      C1724   1.371       .  A
C1715      C1716   1.386       .  A
C1716      S1722   1.711       .  A
C1716      C1717   1.404       .  A
C1717      C1718   1.405       .  A
C1717      H1726   1.083       .  S
C1718      C1721   1.373       .  A
S1719      C1720   1.723       .  A
C1720      C1721   1.388       .  A
C1721      H1727   1.083       .  S
S1722      C1723   1.725       .  A
C1723      C1724   1.390       .  A
C1724      H1728   1.083       .  S
C1729      S1735   1.708       .  A
C1729      C1734   1.387   1_445  A
C1729      C1730   1.400       .  A
C1730      C1731   1.403       .  A
C1730      H1741   1.083       .  S
C1731      C1740   1.367       .  A
C1731      C1732   1.386   1_445  A
C1732      S1738   1.712       .  A
C1732      C1733   1.402       .  A
C1733      C1734   1.403       .  A
C1733      H1742   1.083       .  S
C1734      C1737   1.368       .  A
S1735      C1736   1.722   1_455  A
C1736      C1737   1.387   1_545  A
C1737      H1743   1.083       .  S
S1738      C1739   1.724       .  A
C1739      C1740   1.389   1_665  A
C1740      H1744   1.083       .  S
C1745      S1751   1.709       .  A
C1745      C1750   1.386   1_465  A
C1745      C1746   1.400   1_556  A
C1746      C1747   1.403   1_455  A
C1746      H1757   1.083       .  S
C1747      C1756   1.368   1_655  A
C1747      C1748   1.386   1_565  A
C1748      S1754   1.712       .  A
C1748      C1749   1.402   1_554  A
C1749      C1750   1.404       .  A
C1749      H1758   1.083       .  S
C1750      C1753   1.369       .  A
S1751      C1752   1.723   1_455  A
C1752      C1753   1.389   1_565  A
C1753      H1759   1.083       .  S
S1754      C1755   1.723       .  A
C1755      C1756   1.390   1_645  A
C1756      H1760   1.083       .  S
C1761      S1767   1.710       .  A
C1761      C1766   1.387       .  A
C1761      C1762   1.405       .  A
C1762      C1763   1.406       .  A
C1762      H1773   1.083       .  S
C1763      C1772   1.374       .  A
C1763      C1764   1.387       .  A
C1764      S1770   1.699       .  A
C1764      C1765   1.396       .  A
C1765      C1766   1.396       .  A
C1765      H1774   1.083       .  S
C1766      C1769   1.366       .  A
S1767      C1768   1.726       .  A
C1768      C1769   1.382       .  A
C1769      H1775   1.083       .  S
S1770      C1771   1.721       .  A
C1771      C1772   1.389       .  A
C1772      H1776   1.083       .  S
C1777      S1783   1.714       .  A
C1777      C1782   1.386       .  A
C1777      C1778   1.406       .  A
C1778      C1779   1.408       .  A
C1778      H1789   1.083       .  S
C1779      C1788   1.375       .  A
C1779      C1780   1.387       .  A
C1780      S1786   1.704       .  A
C1780      C1781   1.398       .  A
C1781      C1782   1.399       .  A
C1781      H1790   1.083       .  S
C1782      C1785   1.365       .  A
S1783      C1784   1.727       .  A
C1784      C1785   1.385       .  A
C1785      H1791   1.083       .  S
S1786      C1787   1.721       .  A
C1787      C1788   1.390       .  A
C1788      H1792   1.083       .  S
C1793      S1799   1.713       .  A
C1793      C1798   1.386       .  A
C1793      C1794   1.408       .  A
C1794      C1795   1.407       .  A
C1794      H1805   1.083       .  S
C1795      C1804   1.378       .  A
C1795      C1796   1.387       .  A
C1796      S1802   1.701       .  A
C1796      C1797   1.399       .  A
C1797      C1798   1.399       .  A
C1797      H1806   1.083       .  S
C1798      C1801   1.369       .  A
S1799      C1800   1.728       .  A
C1800      C1801   1.386       .  A
C1801      H1807   1.083       .  S
S1802      C1803   1.722       .  A
C1803      C1804   1.390       .  A
C1804      H1808   1.083       .  S
C1809      S1815   1.711       .  A
C1809      C1814   1.387       .  A
C1809      C1810   1.403       .  A
C1810      C1811   1.405       .  A
C1810      H1821   1.083       .  S
C1811      C1820   1.372       .  A
C1811      C1812   1.386       .  A
C1812      S1818   1.710       .  A
C1812      C1813   1.402       .  A
C1813      C1814   1.403       .  A
C1813      H1822   1.083       .  S
C1814      C1817   1.371       .  A
S1815      C1816   1.724       .  A
C1816      C1817   1.386       .  A
C1817      H1823   1.083       .  S
S1818      C1819   1.725       .  A
C1819      C1820   1.390       .  A
C1820      H1824   1.083       .  S
