geometry optimzed in LAMMPS
_audit_creation_date              2020-11-30 
_audit_creation_method            'lammps2cif' 
_symmetry_space_group_name_H-M    'P1' 
_symmetry_Int_Tables_number       1 
_symmetry_cell_setting            triclinic 
loop_ 
_symmetry_equiv_pos_as_xyz 
  x,y,z 
_cell_length_a                    72.54392791 
_cell_length_b                    72.61870093772781 
_cell_length_c                    43.76531947016192 
_cell_angle_alpha                 90.01859606446324 
_cell_angle_beta                  89.99461406584143 
_cell_angle_gamma                 119.95506687048453 
loop_ 
_atom_site_label 
_atom_site_type_symbol 
_atom_site_fract_x 
_atom_site_fract_y 
_atom_site_fract_z 
_atom_site_charge 
O1          O  0.60122011  0.41623832  0.47195601    -0.87300
C2          C  0.56023485  0.39312822  0.40071350     0.88800
Mg3        Mg  0.59068842  0.41249597  0.51832737     1.58100
O4          O  0.58475915  0.44834452  0.40869664    -0.87000
O5          O  0.62063944  0.44225286  0.44026697    -0.74300
C6          C  0.51848445  0.44326207  0.52027814     0.93800
O7          O  0.55498187  0.37512851  0.46864561    -0.74100
O8          O  0.52328515  0.43069115  0.53363105    -0.81600
Mg9        Mg  0.58725425  0.38824122  0.44405593     1.58000
C10         C  0.54933962  0.47867926  0.40313216     0.93700
O11         O  0.61907204  0.39850769  0.41934109    -0.79900
H12         H  0.61113868  0.47684156  0.41007924    -0.05200
C13         C  0.52536594  0.41533790  0.44683003     0.88700
O14         O  0.59571656  0.44648056  0.51799725    -0.74400
O15         O  0.57820333  0.40416481  0.41172033    -0.87200
O16         O  0.55329863  0.46619835  0.38759713    -0.80000
C17         C  0.57483631  0.43058916  0.33086930     0.93900
C18         C  0.62923927  0.40877071  0.39567357     0.93700
Mg19       Mg  0.55710260  0.46036742  0.46683974     1.58000
O20         O  0.52682883  0.45227292  0.49495319    -0.79900
O21         O  0.58855392  0.47319743  0.44066844    -0.74100
O22         O  0.58819003  0.42761105  0.34589894    -0.80000
O23         O  0.59534046  0.36987239  0.47775602    -0.81700
O24         O  0.55720040  0.42129008  0.56551888    -0.80000
C25         C  0.59535119  0.46654588  0.41902258     0.88200
O26         O  0.56669250  0.44432932  0.49912242    -0.87200
O27         O  0.54219388  0.43155700  0.44007529    -0.87300
O28         O  0.52257208  0.40653725  0.47282538    -0.74300
Mg29       Mg  0.60292120  0.43399532  0.39431884     1.58000
O30         O  0.56219268  0.43562689  0.34360094    -0.81700
H31         H  0.62964542  0.44058632  0.48359212    -0.05400
O32         O  0.55852787  0.39927976  0.50204864    -0.87000
H33         H  0.53169462  0.37128333  0.49809866    -0.05200
H34         H  0.59108322  0.47173887  0.51400123    -0.05400
C35         C  0.54782281  0.38149149  0.49029683     0.88100
C36         C  0.61769497  0.43307861  0.46600662     0.88700
C37         C  0.58456192  0.45485390  0.51068131     0.88800
H38         H  0.51293655  0.40808826  0.42983631    -0.05400
O39         O  0.54826130  0.40073139  0.39448201    -0.74400
Mg40       Mg  0.54168066  0.41486758  0.51762238     1.58000
H41         H  0.55420532  0.37631435  0.39746718    -0.05400
C42         C  0.59191787  0.36714323  0.50628837     0.93800
O43         O  0.58083034  0.41021343  0.56799204    -0.81700
C44         C  0.56953631  0.41692842  0.58065525     0.93800
O45         O  0.62380540  0.42013311  0.38018476    -0.81600
Mg46       Mg  0.55232102  0.43410391  0.39330854     1.58200
O47         O  0.58790747  0.37927403  0.52263041    -0.80000
O48         O  0.54778467  0.47775091  0.43214521    -0.81700
O49         O  0.60246001  0.41739743  0.97247961    -0.87300
C50         C  0.56256528  0.39489292  0.89980240     0.88800
Mg51       Mg  0.59140909  0.41295357  0.01860098     1.58100
O52         O  0.58656776  0.45002084  0.90891594    -0.87000
O53         O  0.62205795  0.44384463  0.94148319    -0.74300
C54         C  0.51914411  0.44355350  0.01950509     0.93800
O55         O  0.55635039  0.37615280  0.96759274    -0.74100
O56         O  0.52384989  0.43096200  0.03302702    -0.81600
Mg57       Mg  0.58896638  0.38973066  0.94389944     1.58000
C58         C  0.55057293  0.47968341  0.90319069     0.93700
O59         O  0.62108897  0.40058789  0.92025747    -0.79900
H60         H  0.61278814  0.47861081  0.91094501    -0.05200
C61         C  0.52683335  0.41624311  0.94590982     0.88700
O62         O  0.59631009  0.44690434  0.01908036    -0.74400
O63         O  0.58028461  0.40595455  0.91150598    -0.87200
O64         O  0.55480862  0.46745945  0.88752804    -0.80000
C65         C  0.57795322  0.43347039  0.83069908     0.93900
C66         C  0.63165331  0.41118527  0.89706857     0.93700
Mg67       Mg  0.55820933  0.46109243  0.96687036     1.58000
O68         O  0.52766445  0.45259997  0.99429268    -0.79900
O69         O  0.58993377  0.47444691  0.94136911    -0.74100
O70         O  0.59120962  0.43039848  0.84587050    -0.80000
O71         O  0.59674895  0.37094188  0.97741212    -0.81700
O72         O  0.55718633  0.42082040  0.06547999    -0.80000
C73         C  0.59695991  0.46813021  0.91960932     0.88200
O74         O  0.56758327  0.44485601  0.99927888    -0.87200
O75         O  0.54371927  0.43250805  0.93953462    -0.87300
O76         O  0.52376939  0.40731581  0.97184848    -0.74300
Mg77       Mg  0.60510209  0.43605816  0.89493808     1.58000
O78         O  0.56485001  0.43789972  0.84339101    -0.81700
H79         H  0.63056542  0.44187091  0.98498829    -0.05400
O80         O  0.55941512  0.39979441  0.00158508    -0.87000
H81         H  0.53267725  0.37182840  0.99661180    -0.05200
H82         H  0.59160204  0.47212914  0.01524461    -0.05400
C83         C  0.54889562  0.38217318  0.98928215     0.88100
C84         C  0.61887729  0.43442204  0.96706051     0.88700
C85         C  0.58522926  0.45530527  0.01149914     0.88800
H86         H  0.51457410  0.40909219  0.92866122    -0.05400
O87         O  0.55051148  0.40235697  0.89336537    -0.74400
Mg88       Mg  0.54237095  0.41520066  0.01708489     1.58000
H89         H  0.55681040  0.37816812  0.89611717    -0.05400
C90         C  0.59308889  0.36790932  0.00586515     0.93800
O91         O  0.58082804  0.40975045  0.06792812    -0.81700
C92         C  0.56921129  0.41604387  0.08065221     0.93800
O93         O  0.62638835  0.42259027  0.88135953    -0.81600
Mg94       Mg  0.55427295  0.43559982  0.89286450     1.58200
O95         O  0.58883060  0.37981239  0.02230360    -0.80000
O96         O  0.54896998  0.47859304  0.93219676    -0.81700
O97         O  0.39835110  0.58224073  0.22235070    -0.87300
C98         C  0.43866617  0.60531063  0.15007759     0.88800
Mg99       Mg  0.40925883  0.58633366  0.26862026     1.58100
O100        O  0.41428858  0.55010739  0.15831530    -0.87000
O101        O  0.37873348  0.55621799  0.19074107    -0.74300
C102        C  0.48181932  0.55610077  0.26845869     0.93800
O103        O  0.44450464  0.62367426  0.21822994    -0.74100
O104        O  0.47720585  0.56873972  0.28205058    -0.81600
Mg105      Mg  0.41203685  0.61015863  0.19422965     1.58000
C106        C  0.44976593  0.52004789  0.15220662     0.93700
O107        O  0.38015194  0.59971586  0.17026027    -0.79900
H108        H  0.38790575  0.52164852  0.16048584    -0.05200
C109        C  0.47392441  0.58359632  0.19537609     0.88700
O110        O  0.40450152  0.55247417  0.26861320    -0.74400
O111        O  0.42091317  0.59421773  0.16166037    -0.87200
O112        O  0.44565231  0.53241422  0.13670696    -0.80000
C113        C  0.42356211  0.56752850  0.08038312     0.93900
C114        C  0.36985551  0.58954549  0.14665998     0.93700
Mg115      Mg  0.44254614  0.53864282  0.21610011     1.58000
O116        O  0.47314659  0.54697863  0.24333870    -0.79900
O117        O  0.41078761  0.52559122  0.19071103    -0.74100
O118        O  0.41036304  0.57062770  0.09564173    -0.80000
O119        O  0.40390325  0.62841942  0.22790091    -0.81700
O120        O  0.44381876  0.57854906  0.31509289    -0.80000
C121        C  0.40379308  0.53201810  0.16904522     0.88200
O122        O  0.43332436  0.55479446  0.24875554    -0.87200
O123        O  0.45708006  0.56728431  0.18899060    -0.87300
O124        O  0.47697708  0.59250506  0.22133154    -0.74300
Mg125      Mg  0.39605619  0.56439606  0.14441800     1.58000
O126        O  0.43630753  0.56255945  0.09291498    -0.81700
H127        H  0.37007033  0.55780370  0.23431858    -0.05400
O128        O  0.44132387  0.59975461  0.25171967    -0.87000
H129        H  0.46799892  0.62785103  0.24749125    -0.05200
H130        H  0.40941086  0.52739417  0.26452952    -0.05400
C131        C  0.45185308  0.61751385  0.23985594     0.88100
C132        C  0.38187166  0.56535676  0.21656038     0.88700
C133        C  0.41569329  0.54421868  0.26094828     0.88800
H134        H  0.48613954  0.59083393  0.17808552    -0.05400
O135        O  0.45063907  0.59779641  0.14336913    -0.74400
Mg136      Mg  0.45851422  0.58441228  0.26666341     1.58000
H137        H  0.44450269  0.62207670  0.14669168    -0.05400
C138        C  0.40719224  0.63119148  0.25643350     0.93800
O139        O  0.41983149  0.58917098  0.31802047    -0.81700
C140        C  0.43164706  0.58301125  0.33049056     0.93800
O141        O  0.37517069  0.57825695  0.13078012    -0.81600
Mg142      Mg  0.44660390  0.56443313  0.14239448     1.58200
O143        O  0.41149014  0.61931429  0.27286529    -0.80000
O144        O  0.45151968  0.52110806  0.18118972    -0.81700
O145        O  0.39728218  0.58229930  0.72083077    -0.87300
C146        C  0.43903119  0.60483853  0.65014671     0.88800
Mg147      Mg  0.40757435  0.58640716  0.76744224     1.58100
O148        O  0.41414125  0.54959265  0.65855018    -0.87000
O149        O  0.37824923  0.55615118  0.68904832    -0.74300
C150        C  0.47963455  0.55524965  0.77136823     0.93800
O151        O  0.44368042  0.62348325  0.71788054    -0.74100
O152        O  0.47497459  0.56803184  0.78444055    -0.81600
Mg153      Mg  0.41166856  0.61014813  0.69256080     1.58000
C154        C  0.44928706  0.51898444  0.65492511     0.93700
O155        O  0.38025355  0.59987115  0.66695488    -0.79900
H156        H  0.38758993  0.52123411  0.65995119    -0.05200
C157        C  0.47313308  0.58265972  0.69734857     0.88700
O158        O  0.40252443  0.55241199  0.76798430    -0.74400
O159        O  0.42101131  0.59392749  0.66103277    -0.87200
O160        O  0.44561920  0.53144567  0.63885238    -0.80000
C161        C  0.42491463  0.56707232  0.58059646     0.93900
C162        C  0.37042947  0.58961347  0.64310556     0.93700
Mg163      Mg  0.44107270  0.53781962  0.71785513     1.58000
O164        O  0.47112755  0.54598324  0.74626682    -0.79900
O165        O  0.40980039  0.52493556  0.69125400    -0.74100
O166        O  0.41156297  0.57027149  0.59524226    -0.80000
O167        O  0.40315032  0.62872015  0.72539177    -0.81700
O168        O  0.44113617  0.57813029  0.81544906    -0.80000
C169        C  0.40332228  0.53149238  0.66910646     0.88200
O170        O  0.43151194  0.55426814  0.74950636    -0.87200
O171        O  0.45632738  0.56639966  0.69065648    -0.87300
O172        O  0.47580437  0.59171816  0.72311127    -0.74300
Mg173      Mg  0.39637741  0.56411731  0.64338094     1.58000
O174        O  0.43728896  0.56185890  0.59374495    -0.81700
H175        H  0.36877302  0.55791229  0.73204622    -0.05400
O176        O  0.43982945  0.59941055  0.75153994    -0.87000
H177        H  0.46665249  0.62745012  0.74803109    -0.05200
H178        H  0.40705663  0.52705232  0.76477441    -0.05400
C179        C  0.45063007  0.61719226  0.73986353     0.88100
C180        C  0.38090661  0.56539800  0.71469831     0.88700
C181        C  0.41362963  0.54390789  0.76107726     0.88800
H182        H  0.48564269  0.58974375  0.68044929    -0.05400
O183        O  0.45091459  0.59708625  0.64418475    -0.74400
Mg184      Mg  0.45660687  0.58384819  0.76770840     1.58000
H185        H  0.44515823  0.62164940  0.64669929    -0.05400
C186        C  0.40608756  0.63159403  0.75399880     0.93800
O187        O  0.41745107  0.58919111  0.81725159    -0.81700
C188        C  0.42889655  0.58278209  0.83027503     0.93800
O189        O  0.37594688  0.57812325  0.62814807    -0.81600
Mg190      Mg  0.44667394  0.56361708  0.64371459     1.58200
O191        O  0.41004855  0.61965511  0.77090276    -0.80000
O192        O  0.45044550  0.52003573  0.68396223    -0.81700
O193        O  0.18459977  0.60034546  0.05359111    -0.87300
C194        C  0.16769612  0.55969462  0.98200205     0.88800
Mg195      Mg  0.17749922  0.58975881  0.10001065     1.58100
O196        O  0.13710063  0.58441962  0.98925950    -0.87000
O197        O  0.17874792  0.62006057  0.02144648    -0.74300
C198        C  0.07456833  0.51813989  0.09990465     0.93800
O199        O  0.17952868  0.55417455  0.05036204    -0.74100
O200        O  0.09174587  0.52272055  0.11371598    -0.81600
Mg201      Mg  0.19897847  0.58650217  0.02608352     1.58000
C202        C  0.07162713  0.54957297  0.98256548     0.93700
O203        O  0.22082675  0.61837357  0.00180868    -0.79900
H204        H  0.13518398  0.61091459  0.99076674    -0.05200
C205        C  0.11011844  0.52493064  0.02739162     0.88700
O206        O  0.14862661  0.59493316  0.09929748    -0.74400
O207        O  0.17449336  0.57762493  0.99302391    -0.87200
O208        O  0.08815699  0.55330502  0.96748408    -0.80000
C209        C  0.14521153  0.57457173  0.91164276     0.93900
C210        C  0.22115527  0.62864399  0.97801689     0.93700
Mg211      Mg  0.09688292  0.55681621  0.04685920     1.58000
O212        O  0.07426413  0.52655214  0.07446528    -0.79900
O213        O  0.11595587  0.58829395  0.02103971    -0.74100
O214        O  0.16154598  0.58790625  0.92668976    -0.80000
O215        O  0.22499012  0.59449552  0.06035339    -0.81700
O216        O  0.13491327  0.55602527  0.14663967    -0.80000
C217        C  0.12952840  0.59507206  0.99956067     0.88200
O218        O  0.12202996  0.56605751  0.07983622    -0.87200
O219        O  0.11100800  0.54187728  0.02057760    -0.87300
O220        O  0.11572660  0.52193386  0.05356794    -0.74300
Mg221      Mg  0.16967920  0.60247982  0.97534045     1.58000
O222        O  0.12758712  0.56186107  0.92437115    -0.81700
H223        H  0.18874883  0.62881820  0.06508845    -0.05400
O224        O  0.15871752  0.55763055  0.08355724    -0.87000
H225        H  0.15985859  0.53078729  0.07945314    -0.05200
H226        H  0.11873058  0.59027068  0.09482474    -0.05400
C227        C  0.16585920  0.54695270  0.07181896     0.88100
C228        C  0.18447352  0.61692017  0.04747408     0.88700
C229        C  0.12918071  0.58381339  0.09163114     0.88800
H230        H  0.10502664  0.51256552  0.01032268    -0.05400
O231        O  0.14816745  0.54771549  0.97557617    -0.74400
Mg232      Mg  0.12614475  0.54086673  0.09849108     1.58000
H233        H  0.17854263  0.55369447  0.97896908    -0.05400
C234        C  0.22411725  0.59104211  0.08887236     0.93800
O235        O  0.16956747  0.57970207  0.14956154    -0.81700
C236        C  0.15152867  0.56822006  0.16201345     0.93800
O237        O  0.20462969  0.62327705  0.96185882    -0.81600
Mg238      Mg  0.11897470  0.55199912  0.97389072     1.58200
O239        O  0.20785357  0.58693086  0.10496672    -0.80000
O240        O  0.07062218  0.54789362  0.01155463    -0.81700
O241        O  0.18468619  0.60166395  0.55273573    -0.87300
C242        C  0.16637039  0.56160086  0.48028503     0.88800
Mg243      Mg  0.17844102  0.59057738  0.59898622     1.58100
O244        O  0.13580045  0.58614526  0.49035330    -0.87000
O245        O  0.17793653  0.62146561  0.52196639    -0.74300
C246        C  0.07550893  0.51891593  0.60150274     0.93800
O247        O  0.17949845  0.55545342  0.54748631    -0.74100
O248        O  0.09289490  0.52340140  0.61458665    -0.81600
Mg249      Mg  0.19842608  0.58797895  0.52359561     1.58000
C250        C  0.07021657  0.55093314  0.48598126     0.93700
O251        O  0.21973865  0.61998692  0.49955385    -0.79900
H252        H  0.13382508  0.61257545  0.49307876    -0.05200
C253        C  0.10970942  0.52642003  0.52726773     0.88700
O254        O  0.14954936  0.59576270  0.60034218    -0.74400
O255        O  0.17326755  0.57938637  0.49184757    -0.87200
O256        O  0.08647685  0.55494287  0.46999512    -0.80000
C257        C  0.14282117  0.57679658  0.41194583     0.93900
C258        C  0.21959840  0.63045282  0.47629545     0.93700
Mg259      Mg  0.09680508  0.55808667  0.54906516     1.58000
O260        O  0.07480710  0.52759898  0.57654201    -0.79900
O261        O  0.11525592  0.58976774  0.52357371    -0.74100
O262        O  0.15930567  0.59006024  0.42678292    -0.80000
O263        O  0.22516227  0.59564492  0.55637628    -0.81700
O264        O  0.13659915  0.55651819  0.64632784    -0.80000
C265        C  0.12838579  0.59669435  0.50154875     0.88200
O266        O  0.12259099  0.56713538  0.58092689    -0.87200
O267        O  0.11045741  0.54340832  0.52121807    -0.87300
O268        O  0.11580195  0.52321777  0.55293117    -0.74300
Mg269      Mg  0.16813261  0.60432843  0.47553245     1.58000
O270        O  0.12531337  0.56405521  0.42494557    -0.81700
H271        H  0.18875982  0.62992318  0.56535654    -0.05400
O272        O  0.15929545  0.55865745  0.58201641    -0.87000
H273        H  0.16037383  0.53185744  0.57669746    -0.05200
H274        H  0.11962069  0.59122392  0.59736862    -0.05400
C275        C  0.16622458  0.54806966  0.56941353     0.88100
C276        C  0.18425167  0.61819135  0.54743904     0.88700
C277        C  0.12997975  0.58477034  0.59321213     0.88800
H278        H  0.10431982  0.51420136  0.50992949    -0.05400
O279        O  0.14676602  0.54964858  0.47433322    -0.74400
Mg280      Mg  0.12700750  0.54176034  0.59809327     1.58000
H281        H  0.17721168  0.55569739  0.47633186    -0.05400
C282        C  0.22483371  0.59183014  0.58471124     0.93800
O283        O  0.17134582  0.57998140  0.64849504    -0.81700
C284        C  0.15346133  0.56848390  0.66136522     0.93800
O285        O  0.20277586  0.62525776  0.46098469    -0.81600
Mg286      Mg  0.11752436  0.55384453  0.47454583     1.58200
O287        O  0.20890759  0.58761580  0.60169731    -0.80000
O288        O  0.06987660  0.54922907  0.51495833    -0.81700
O289        O  0.81592718  0.39797554  0.30468793    -0.87300
C290        C  0.83369257  0.43813308  0.23229737     0.88800
Mg291      Mg  0.82231164  0.40879376  0.35100877     1.58100
O292        O  0.86464326  0.41388375  0.24146224    -0.87000
O293        O  0.82277507  0.37842013  0.27350287    -0.74300
C294        C  0.92520220  0.48111203  0.35235707     0.93800
O295        O  0.82107785  0.44419592  0.30011300    -0.74100
O296        O  0.90789758  0.47622572  0.36602955    -0.81600
Mg297      Mg  0.80206299  0.41177141  0.27604819     1.58000
C298        C  0.93021561  0.44970828  0.23631884     0.93700
O299        O  0.78075944  0.37987410  0.25201716    -0.79900
H300        H  0.86692031  0.38760266  0.24363199    -0.05200
C301        C  0.89034607  0.47339955  0.27902807     0.88700
O302        O  0.85136770  0.40380162  0.35152136    -0.74400
O303        O  0.82704729  0.42041807  0.24393588    -0.87200
O304        O  0.91380146  0.44552025  0.22059898    -0.80000
C305        C  0.85710434  0.42322569  0.16337888     0.93900
C306        C  0.78075590  0.36936316  0.22873197     0.93700
Mg307      Mg  0.90385701  0.44202716  0.29982563     1.58000
O308        O  0.92578525  0.47260954  0.32715335    -0.79900
O309        O  0.88552461  0.41037507  0.27417258    -0.74100
O310        O  0.84070052  0.40988069  0.17829517    -0.80000
O311        O  0.77541829  0.40404665  0.30917369    -0.81700
O312        O  0.86434985  0.44257391  0.39840511    -0.80000
C313        C  0.87226988  0.40342495  0.25229398     0.88200
O314        O  0.87817561  0.43257577  0.33213650    -0.87200
O315        O  0.88978176  0.45654712  0.27256716    -0.87300
O316        O  0.88442143  0.47640297  0.30497614    -0.74300
Mg317      Mg  0.83220562  0.39558654  0.22711163     1.58000
O318        O  0.87462119  0.43605896  0.17627956    -0.81700
H319        H  0.81215558  0.36977307  0.31692300    -0.05400
O320        O  0.84128782  0.44080967  0.33443817    -0.87000
H321        H  0.84022786  0.46764205  0.32951075    -0.05200
H322        H  0.88130020  0.40841798  0.34785612    -0.05400
C323        C  0.83435108  0.45145768  0.32205191     0.88100
C324        C  0.81649208  0.38154358  0.29911170     0.88700
C325        C  0.87088959  0.41486399  0.34413682     0.88800
H326        H  0.89545968  0.48568544  0.26184260    -0.05400
O327        O  0.85322346  0.45019846  0.22605978    -0.74400
Mg328      Mg  0.87365276  0.45769634  0.35010952     1.58000
H329        H  0.82270127  0.44387446  0.22852903    -0.05400
C330        C  0.77575098  0.40757696  0.33761826     0.93800
O331        O  0.82960234  0.41906946  0.40057292    -0.81700
C332        C  0.84751152  0.43045107  0.41344161     0.93800
O333        O  0.79745428  0.37454487  0.21310716    -0.81600
Mg334      Mg  0.88260127  0.44624911  0.22581358     1.58200
O335        O  0.79169659  0.41158859  0.35445831    -0.80000
O336        O  0.93067842  0.45130159  0.26531698    -0.81700
O337        O  0.81675130  0.39897070  0.80656573    -0.87300
C338        C  0.83265305  0.43769252  0.73278668     0.88800
Mg339      Mg  0.82416200  0.41067287  0.85242274     1.58100
O340        O  0.86415620  0.41402581  0.74191253    -0.87000
O341        O  0.82288586  0.37878474  0.77570452    -0.74300
C342        C  0.92667947  0.48379734  0.84958622     0.91400
O343        O  0.82140291  0.44488688  0.80089364    -0.74100
O344        O  0.90962030  0.47910229  0.86382392    -0.81600
Mg345      Mg  0.80200313  0.41200545  0.77817480     1.58000
C346        C  0.92982361  0.45048612  0.73439062     0.93700
O347        O  0.78011844  0.37965789  0.75520149    -0.79900
H348        H  0.86681289  0.38799194  0.74501623    -0.05200
C349        C  0.89026721  0.47439020  0.77720271     0.88700
O350        O  0.85335526  0.40599133  0.85212916    -0.74400
O351        O  0.82629113  0.42019218  0.74499601    -0.87200
O352        O  0.91308980  0.44572332  0.71904706    -0.80000
C353        C  0.85502130  0.42170335  0.66368491     0.93900
C354        C  0.77973998  0.36884235  0.73203690     0.93700
Mg355      Mg  0.90454945  0.44376255  0.79853337     1.58000
O356        O  0.92681037  0.47488694  0.82454676    -0.79900
O357        O  0.88591792  0.41158401  0.77418792    -0.74100
O358        O  0.83893422  0.40859154  0.67936951    -0.80000
O359        O  0.77617718  0.40474197  0.81258394    -0.81700
O360        O  0.86691480  0.44574192  0.89786596    -0.80000
C361        C  0.87217686  0.40398179  0.75295175     0.88200
O362        O  0.87958176  0.43471796  0.83170736    -0.87200
O363        O  0.88968042  0.45746045  0.77123048    -0.87300
O364        O  0.88487717  0.47788381  0.80324837    -0.74300
Mg365      Mg  0.83138603  0.39518650  0.72874884     1.58000
O366        O  0.87274732  0.43486109  0.67581646    -0.81700
H367        H  0.81313094  0.37097344  0.81962297    -0.05400
O368        O  0.84250946  0.44245927  0.83465125    -0.87000
H369        H  0.84105401  0.46902721  0.82898750    -0.05200
H370        H  0.88339771  0.41103952  0.84769883    -0.05400
C371        C  0.83515236  0.45271090  0.82218495     0.88100
C372        C  0.81714010  0.38240708  0.80140239     0.88700
C373        C  0.87273426  0.41720796  0.84416616     0.88800
H374        H  0.89494987  0.48631238  0.75954035    -0.05400
O375        O  0.85206052  0.44973013  0.72579992    -0.74400
Mg376      Mg  0.87512132  0.45999277  0.84911583     1.58000
H377        H  0.82153081  0.44328576  0.72913570    -0.05400
C378        C  0.77725538  0.40881217  0.84093972     0.93800
O379        O  0.83237387  0.42178698  0.90146563    -0.81700
C380        C  0.85045298  0.43362836  0.91358046     0.93800
O381        O  0.79627779  0.37372267  0.71614230    -0.81600
Mg382      Mg  0.88165792  0.44612617  0.72492595     1.58200
O383        O  0.79364177  0.41326479  0.85696656    -0.80000
O384        O  0.93070989  0.45266405  0.76328984    -0.81700
O385        O  0.60277250  0.18439842  0.11640691    -0.87300
C386        C  0.56295692  0.16714702  0.18924811     0.88800
Mg387      Mg  0.59172343  0.17762085  0.07027821     1.58100
O388        O  0.58672567  0.13579548  0.17947233    -0.87000
O389        O  0.62248526  0.17758117  0.14724528    -0.74300
C390        C  0.51803712  0.07501649  0.06949949     0.93800
O391        O  0.55667551  0.17959345  0.12118977    -0.74100
O392        O  0.52309329  0.09236068  0.05587927    -0.81600
Mg393      Mg  0.58920501  0.19852760  0.14501001     1.58000
C394        C  0.55031670  0.07014469  0.18539014     0.93700
O395        O  0.62116888  0.21988691  0.16904569    -0.79900
H396        H  0.61275692  0.13305319  0.17686125    -0.05200
C397        C  0.52680800  0.11046219  0.14306739     0.88700
O398        O  0.59626887  0.14833630  0.07031996    -0.74400
O399        O  0.58058912  0.17365809  0.17731844    -0.87200
O400        O  0.55497142  0.08671489  0.20103575    -0.80000
C401        C  0.57842433  0.14385312  0.25791421     0.93900
C402        C  0.63172078  0.21980858  0.19224782     0.93700
Mg403      Mg  0.55752418  0.09615976  0.12182238     1.58000
O404        O  0.52659699  0.07436901  0.09464584    -0.79900
O405        O  0.58945958  0.11431585  0.14703243    -0.74100
O406        O  0.59161605  0.16010432  0.24264488    -0.80000
O407        O  0.59694446  0.22496719  0.11150197    -0.81700
O408        O  0.55738080  0.13543181  0.02356877    -0.80000
C409        C  0.59686666  0.12784189  0.16854500     0.88200
O410        O  0.56718530  0.12171939  0.08946711    -0.87200
O411        O  0.54355649  0.11070586  0.14931863    -0.87300
O412        O  0.52376226  0.11634514  0.11711143    -0.74300
Mg413      Mg  0.60544214  0.16829825  0.19367384     1.58000
O414        O  0.56531164  0.12630769  0.24533376    -0.81700
H415        H  0.63097763  0.18825238  0.10382642    -0.05400
O416        O  0.55968879  0.15902435  0.08712513    -0.87000
H417        H  0.53302843  0.16045517  0.09204438    -0.05200
H418        H  0.59128819  0.11831713  0.07413745    -0.05400
C419        C  0.54922483  0.16621143  0.09941936     0.88100
C420        C  0.61926838  0.18389312  0.12175706     0.88700
C421        C  0.58496584  0.12884779  0.07765852     0.88800
H422        H  0.51465519  0.10565416  0.16042870    -0.05400
O423        O  0.55085262  0.14767537  0.19572625    -0.74400
Mg424      Mg  0.54226720  0.12662947  0.07172735     1.58000
H425        H  0.55731996  0.17820865  0.19310645    -0.05400
C426        C  0.59342728  0.22444479  0.08301820     0.93800
O427        O  0.58136307  0.16998608  0.02076720    -0.81700
C428        C  0.56977787  0.15199160  0.00826729     0.93800
O429        O  0.62668302  0.20302786  0.20752964    -0.81600
Mg430      Mg  0.55447300  0.11810195  0.19591300     1.58200
O431        O  0.58931809  0.20837556  0.06642588    -0.80000
O432        O  0.54817216  0.06948890  0.15647054    -0.81700
O433        O  0.60203212  0.18435613  0.61726869    -0.87300
C434        C  0.56110366  0.16558957  0.68881862     0.88800
Mg435      Mg  0.59178018  0.17765063  0.57078234     1.58100
O436        O  0.58684346  0.13601462  0.68012073    -0.87000
O437        O  0.62202575  0.17848649  0.64887745    -0.74300
C438        C  0.52101444  0.07435802  0.56820525     0.93800
O439        O  0.55526701  0.17795983  0.62064463    -0.74100
O440        O  0.52560668  0.09163072  0.55474438    -0.81600
Mg441      Mg  0.58738802  0.19767181  0.64531671     1.58000
C442        C  0.55259875  0.07026598  0.68517488     0.93700
O443        O  0.61898045  0.21972198  0.66993266    -0.79900
H444        H  0.61359234  0.13451848  0.67834646    -0.05200
C445        C  0.52733645  0.10879391  0.64177949     0.88700
O446        O  0.59759993  0.14918042  0.57093312    -0.74400
O447        O  0.57906291  0.17284394  0.67762785    -0.87200
O448        O  0.55628657  0.08658362  0.70075586    -0.80000
C449        C  0.57681512  0.14290697  0.75819681     0.93900
C450        C  0.62950342  0.22005916  0.69342929     0.93700
Mg451      Mg  0.55967371  0.09631820  0.62163662     1.58000
O452        O  0.52946562  0.07386325  0.59354010    -0.79900
O453        O  0.59108798  0.11537499  0.64782789    -0.74100
O454        O  0.58985232  0.15952933  0.74342954    -0.80000
O455        O  0.59477372  0.22401182  0.61184387    -0.81700
O456        O  0.55901560  0.13538007  0.52303464    -0.80000
C457        C  0.59771771  0.12876872  0.66954103     0.88200
O458        O  0.56881135  0.12189602  0.58943346    -0.87200
O459        O  0.54434363  0.10974743  0.64855390    -0.87300
O460        O  0.52435999  0.11463231  0.61575056    -0.74300
Mg461      Mg  0.60438615  0.16851242  0.69482032     1.58000
O462        O  0.56433771  0.12534523  0.74512189    -0.81700
H463        H  0.63080753  0.18933491  0.60558957    -0.05400
O464        O  0.55961776  0.15813241  0.58671492    -0.87000
H465        H  0.53231809  0.15843354  0.59088160    -0.05200
H466        H  0.59364262  0.11954514  0.57465752    -0.05400
C467        C  0.54849999  0.16468054  0.59869758     0.88100
C468        C  0.61880681  0.18454166  0.62317718     0.88700
C469        C  0.58676502  0.12961093  0.57802389     0.88800
H470        H  0.51487593  0.10340688  0.65875656    -0.05400
O471        O  0.54947186  0.14597019  0.69487683    -0.74400
Mg472      Mg  0.54343737  0.12580729  0.57092977     1.58000
H473        H  0.55477509  0.17611234  0.69235777    -0.05400
C474        C  0.59170962  0.22354626  0.58324195     0.93800
O475        O  0.58220564  0.17017427  0.52101824    -0.81700
C476        C  0.57117128  0.15223486  0.50811238     0.93800
O477        O  0.62463494  0.20343431  0.70904945    -0.81600
Mg478      Mg  0.55443287  0.11720600  0.69542784     1.58200
O479        O  0.58828982  0.20769950  0.56664821    -0.80000
O480        O  0.55088170  0.06961530  0.65618036    -0.81700
O481        O  0.39836934  0.81533019  0.36428710    -0.87300
C482        C  0.43834291  0.83239456  0.43682812     0.88800
Mg483      Mg  0.40911123  0.82182591  0.31807379     1.58100
O484        O  0.41458178  0.86375476  0.42736393    -0.87000
O485        O  0.37871138  0.82208128  0.39531849    -0.74300
C486        C  0.48266476  0.92421115  0.31681954     0.93800
O487        O  0.44430323  0.81972476  0.36871714    -0.74100
O488        O  0.47762883  0.90685136  0.30324701    -0.81600
Mg489      Mg  0.41177585  0.80096580  0.39266032     1.58000
C490        C  0.45093452  0.92940683  0.43282738     0.93700
O491        O  0.37970812  0.77984335  0.41648466    -0.79900
H492        H  0.38850949  0.86642637  0.42486957    -0.05200
C493        C  0.47435299  0.88900918  0.39038920     0.88700
O494        O  0.40467772  0.85113716  0.31792724    -0.74400
O495        O  0.42063294  0.82583889  0.42511610    -0.87200
O496        O  0.44641286  0.91289949  0.44853392    -0.80000
C497        C  0.42309641  0.85591418  0.50577382     0.93900
C498        C  0.36911924  0.77985723  0.43967552     0.93700
Mg499      Mg  0.44347914  0.90318579  0.36938353     1.58000
O500        O  0.47423517  0.92491638  0.34204888    -0.79900
O501        O  0.41166055  0.88504943  0.39480338    -0.74100
O502        O  0.40984305  0.83958015  0.49066143    -0.80000
O503        O  0.40368143  0.77446908  0.35908275    -0.81700
O504        O  0.44337282  0.86365375  0.27096606    -0.80000
C505        C  0.40437407  0.87163415  0.41644626     0.88200
O506        O  0.43380822  0.87759069  0.33711149    -0.87200
O507        O  0.45762726  0.88877677  0.39678924    -0.87300
O508        O  0.47728898  0.88304868  0.36441284    -0.74300
Mg509      Mg  0.39586000  0.83129960  0.44166771     1.58000
O510        O  0.43619437  0.87338583  0.49300143    -0.81700
H511        H  0.37015862  0.81152129  0.35185849    -0.05400
O512        O  0.44128147  0.84026261  0.33460079    -0.87000
H513        H  0.46789557  0.83872707  0.33940968    -0.05200
H514        H  0.40989777  0.88124580  0.32162685    -0.05400
C515        C  0.45172949  0.83304558  0.34687092     0.88100
C516        C  0.38189126  0.81583776  0.36974505     0.88700
C517        C  0.41608207  0.87060810  0.32522759     0.88800
H518        H  0.48658385  0.89387289  0.40764202    -0.05400
O519        O  0.45047548  0.85188471  0.44321537    -0.74400
Mg520      Mg  0.45863747  0.87263220  0.31913317     1.58000
H521        H  0.44401427  0.82135171  0.44058467    -0.05400
C522        C  0.40691699  0.77490076  0.33053267     0.93800
O523        O  0.41923929  0.82912360  0.26863721    -0.81700
C524        C  0.43084804  0.84699777  0.25590312     0.93800
O525        O  0.37439953  0.79652308  0.45542442    -0.81600
Mg526      Mg  0.44688411  0.88148342  0.44347759     1.58200
O527        O  0.41115090  0.79100584  0.31402311    -0.80000
O528        O  0.45287415  0.92995635  0.40388146    -0.81700
O529        O  0.39841341  0.81626728  0.86362485    -0.87300
C530        C  0.43809661  0.83274626  0.93647685     0.88800
Mg531      Mg  0.40961354  0.82359790  0.81763012     1.58100
O532        O  0.41411759  0.86399316  0.92818344    -0.87000
O533        O  0.37858337  0.82264848  0.89486434    -0.74300
C534        C  0.48299146  0.92633084  0.81993394     0.93800
O535        O  0.44445794  0.82090714  0.86811904    -0.74100
O536        O  0.47805492  0.90916433  0.80585232    -0.81600
Mg537      Mg  0.41181144  0.80168329  0.89161954     1.58000
C538        C  0.45004341  0.92969997  0.93612396     0.93700
O539        O  0.37967854  0.77996866  0.91516516    -0.79900
H540        H  0.38798080  0.86657140  0.92601906    -0.05200
C541        C  0.47414550  0.89009673  0.89219035     0.88700
O542        O  0.40510799  0.85290905  0.81856894    -0.74400
O543        O  0.42040237  0.82618608  0.92469081    -0.87200
O544        O  0.44556950  0.91295670  0.95121866    -0.80000
C545        C  0.42218346  0.85494249  0.00616392     0.93900
C546        C  0.36900556  0.77967863  0.93844934     0.93700
Mg547      Mg  0.44328988  0.90447540  0.87170176     1.58000
O548        O  0.47427114  0.92669451  0.84507128    -0.79900
O549        O  0.41129045  0.88581519  0.89656798    -0.74100
O550        O  0.40911357  0.83883390  0.99052379    -0.80000
O551        O  0.40400757  0.77563806  0.85730247    -0.81700
O552        O  0.44413516  0.86640051  0.77180747    -0.80000
C553        C  0.40390902  0.87199537  0.91768636     0.88200
O554        O  0.43395491  0.87928375  0.83860469    -0.87200
O555        O  0.45739417  0.88981342  0.89859353    -0.87300
O556        O  0.47722092  0.88441362  0.86608507    -0.74300
Mg557      Mg  0.39542501  0.83125891  0.94144731     1.58000
O558        O  0.43525452  0.87267650  0.99404142    -0.81700
H559        H  0.37028752  0.81264831  0.85113812    -0.05400
O560        O  0.44159969  0.84197153  0.83480784    -0.87000
H561        H  0.46823855  0.84046355  0.83945214    -0.05200
H562        H  0.40992828  0.88281922  0.82332245    -0.05400
C563        C  0.45201267  0.83461010  0.84676525     0.88100
C564        C  0.38191021  0.81672170  0.86912476     0.88700
C565        C  0.41627455  0.87228344  0.82654659     0.88800
H566        H  0.48626529  0.89472662  0.90956710    -0.05400
O567        O  0.45004622  0.85216309  0.94348611    -0.74400
Mg568      Mg  0.45896401  0.87465451  0.82044982     1.58000
H569        H  0.44391974  0.82178397  0.93977800    -0.05400
C570        C  0.40732861  0.77634486  0.82874226     0.93800
O571        O  0.42025060  0.83183501  0.76840347    -0.81700
C572        C  0.43186246  0.84991816  0.75619515     0.93800
O573        O  0.37403410  0.79624256  0.95431305    -0.81600
Mg574      Mg  0.44628147  0.88166832  0.94492712     1.58200
O575        O  0.41167942  0.79267119  0.81260990    -0.80000
O576        O  0.45224020  0.93074637  0.90718673    -0.81700
C577        C  0.42492112  0.85325924  0.59911194     0.18100
C578        C  0.43605225  0.84429479  0.61289643    -0.11000
C579        C  0.43761066  0.84404343  0.64477097    -0.11800
C580        C  0.42806555  0.85276865  0.66314456     0.19700
C581        C  0.41681711  0.86163193  0.64938487    -0.13900
C582        C  0.41525834  0.86188493  0.61747658    -0.12200
C583        C  0.42975091  0.85248525  0.69602986     0.00600
C584        C  0.43100948  0.85172485  0.72350623    -0.32200
C585        C  0.42373930  0.85387200  0.56618978     0.02000
C586        C  0.42323725  0.85461557  0.53861661    -0.33800
H587        H  0.44360067  0.83757949  0.59900449     0.13100
H588        H  0.44629905  0.83709101  0.65508020     0.12900
H589        H  0.40930874  0.86837976  0.66329512     0.12800
H590        H  0.40660906  0.86887150  0.60714366     0.11800
C591        C  0.42334990  0.85087281  0.09921915     0.18100
C592        C  0.42128804  0.86560948  0.11748293    -0.11000
C593        C  0.42277456  0.86496845  0.14932535    -0.11800
C594        C  0.42634770  0.84959646  0.16308328     0.19700
C595        C  0.42821325  0.83474558  0.14483003    -0.13900
C596        C  0.42672740  0.83538633  0.11300101    -0.12200
C597        C  0.42821981  0.84910275  0.19584833     0.00600
C598        C  0.42967853  0.84840384  0.22325879    -0.32200
C599        C  0.42244179  0.85190238  0.06637681     0.02000
C600        C  0.42212736  0.85307383  0.03887647    -0.33800
H601        H  0.41868193  0.87766491  0.10710973     0.13100
H602        H  0.42126296  0.87651147  0.16318007     0.12900
H603        H  0.43093521  0.82276036  0.15518550     0.12800
H604        H  0.42835576  0.82391320  0.09914544     0.11800
C605        C  0.52017257  0.98127450  0.77338877     0.18100
C606        C  0.52165922  0.97939233  0.74170740    -0.11000
C607        C  0.53043448  0.99750364  0.72310696    -0.11800
C608        C  0.53780102  0.01764225  0.73605365     0.19700
C609        C  0.53682580  0.01958359  0.76782340    -0.13900
C610        C  0.52803632  0.00146633  0.78642676    -0.12200
C611        C  0.54487143  0.03608326  0.71671368     0.00600
C612        C  0.54926439  0.05160964  0.70143515    -0.32200
C613        C  0.50911563  0.96240382  0.79200506     0.02000
C614        C  0.49814562  0.94615536  0.80597141    -0.33800
H615        H  0.51551310  0.96387786  0.73129564     0.13100
H616        H  0.53095808  0.99574450  0.69859123     0.12900
H617        H  0.54233573  0.03503563  0.77812206     0.12800
H618        H  0.52686230  0.00315620  0.81083433     0.11800
C619        C  0.46925711  0.98305666  0.48286907     0.18100
C620        C  0.48940966  0.99068971  0.49594481    -0.11000
C621        C  0.49817579  0.00875098  0.51454589    -0.11800
C622        C  0.48688435  0.01938287  0.52031858     0.19700
C623        C  0.46667610  0.01177762  0.50729739    -0.13900
C624        C  0.45786589  0.99362932  0.48862924    -0.12200
C625        C  0.49656192  0.03839510  0.53884423     0.00600
C626        C  0.50665698  0.05461786  0.55328867    -0.32200
C627        C  0.46054374  0.96432102  0.46381119     0.02000
C628        C  0.45511133  0.94842484  0.44886088    -0.33800
H629        H  0.49838399  0.98268362  0.49170982     0.13100
H630        H  0.51383525  0.01449657  0.52431660     0.12900
H631        H  0.45781113  0.01990199  0.51144487     0.12800
H632        H  0.44226260  0.98789484  0.47868176     0.11800
C633        C  0.57492926  0.14549762  0.85146892     0.18100
C634        C  0.58967277  0.16384067  0.86712887    -0.11000
C635        C  0.58870044  0.16488773  0.89899148    -0.11800
C636        C  0.57297575  0.14759986  0.91542929     0.19700
C637        C  0.55834288  0.12917313  0.89980480    -0.13900
C638        C  0.55931587  0.12812538  0.86792592    -0.12200
C639        C  0.57171456  0.14890854  0.94821211     0.00600
C640        C  0.57072891  0.15025375  0.97561711    -0.32200
C641        C  0.57568680  0.14462346  0.81855881     0.02000
C642        C  0.57625811  0.14395671  0.79100327    -0.33800
H643        H  0.60182949  0.17736933  0.85470166     0.13100
H644        H  0.60011711  0.17921464  0.91077971     0.12900
H645        H  0.54612099  0.11568964  0.91222888     0.12800
H646        H  0.54783448  0.11384237  0.85611434     0.11800
C647        C  0.57486588  0.14928338  0.41509208     0.18100
C648        C  0.56355644  0.15598146  0.39658143    -0.11000
C649        C  0.56467732  0.15512571  0.36471596    -0.11800
C650        C  0.57712131  0.14757087  0.35110841     0.19700
C651        C  0.58849502  0.14092860  0.36960636    -0.13900
C652        C  0.58737374  0.14178559  0.40149774    -0.12200
C653        C  0.57800520  0.14645289  0.31823675     0.00600
C654        C  0.57836359  0.14537370  0.29070571    -0.32200
C655        C  0.57358801  0.15010445  0.44795273     0.02000
C656        C  0.57243003  0.15095524  0.47541775    -0.33800
H657        H  0.55384358  0.16182232  0.40677689     0.13100
H658        H  0.55579816  0.16029512  0.35070055     0.12900
H659        H  0.59816382  0.13504190  0.35939356     0.12800
H660        H  0.59620835  0.13657159  0.41552828     0.11800
C661        C  0.51804853  0.97907664  0.26930093     0.18100
C662        C  0.53114759  0.99899189  0.28271042    -0.11000
C663        C  0.53946951  0.01749554  0.26494487    -0.11800
C664        C  0.53474121  0.01620018  0.23366724     0.19700
C665        C  0.52199375  0.99625403  0.22017082    -0.13900
C666        C  0.51368899  0.97777347  0.23791114    -0.12200
C667        C  0.54183926  0.03531007  0.21583615     0.00600
C668        C  0.54647172  0.05123075  0.20139874    -0.32200
C669        C  0.50785527  0.96011032  0.28786489     0.02000
C670        C  0.49745270  0.94386998  0.30212509    -0.33800
H671        H  0.53453118  0.00025347  0.30697150     0.13100
H672        H  0.54919463  0.03281765  0.27571443     0.12900
H673        H  0.51809884  0.99501840  0.19608400     0.12800
H674        H  0.50347190  0.96250636  0.22728389     0.11800
C675        C  0.46523994  0.98233322  0.98767850     0.18100
C676        C  0.46225950  0.99929438  0.97914254    -0.11000
C677        C  0.47059506  0.01769180  0.99724922    -0.11800
C678        C  0.48193930  0.01922851  0.02401888     0.19700
C679        C  0.48447315  0.00207229  0.03283936    -0.13900
C680        C  0.47616577  0.98373059  0.01478311    -0.12200
C681        C  0.49237361  0.03882622  0.04130114     0.00600
C682        C  0.50302536  0.05530160  0.05500934    -0.32200
C683        C  0.45811872  0.96390031  0.96818081     0.02000
C684        C  0.45363553  0.94834748  0.95282378    -0.33800
H685        H  0.45390461  0.99848289  0.95822261     0.13100
H686        H  0.46862084  0.03087039  0.99001992     0.12900
H687        H  0.49331145  0.00306571  0.05332387     0.12800
H688        H  0.47865775  0.97080247  0.02164216     0.11800
C689        C  0.72267455  0.31487166  0.71639365     0.18100
C690        C  0.71227420  0.30931131  0.68805038    -0.11000
C691        C  0.69285264  0.29031340  0.68484843    -0.11800
C692        C  0.68365750  0.27672049  0.70995805     0.19700
C693        C  0.69396672  0.28238095  0.73834875    -0.13900
C694        C  0.71337582  0.30137015  0.74155026    -0.12200
C695        C  0.66400509  0.25675881  0.70631555     0.00600
C696        C  0.64795645  0.23995022  0.70178716    -0.32200
C697        C  0.74292370  0.33425319  0.71977529     0.02000
C698        C  0.75984937  0.35020516  0.72415613    -0.33800
H699        H  0.71923177  0.31957221  0.66840972     0.13100
H700        H  0.68509837  0.28614251  0.66274420     0.12900
H701        H  0.68709791  0.27204469  0.75793877     0.12800
H702        H  0.72120356  0.30545459  0.76360381     0.11800
C703        C  0.68609022  0.27595902  0.20908333     0.18100
C704        C  0.70499134  0.27596422  0.21573985    -0.11000
C705        C  0.72422585  0.29518220  0.21803087    -0.11800
C706        C  0.72471631  0.31454116  0.21360806     0.19700
C707        C  0.70580031  0.31455661  0.20709832    -0.13900
C708        C  0.68655128  0.29532332  0.20479877    -0.12200
C709        C  0.74453779  0.33432228  0.21649036     0.00600
C710        C  0.76116725  0.35058377  0.22061994    -0.32200
C711        C  0.66643397  0.25609005  0.20552447     0.02000
C712        C  0.65033111  0.23942621  0.20078862    -0.33800
H713        H  0.70487952  0.26111826  0.21897796     0.13100
H714        H  0.73870811  0.29494504  0.22322425     0.12900
H715        H  0.70593589  0.32940727  0.20377978     0.12800
H716        H  0.67207420  0.29554623  0.19951528     0.11800
C717        C  0.85140253  0.42388413  0.57054526     0.18100
C718        C  0.83465000  0.40772775  0.55380361    -0.11000
C719        C  0.83401094  0.40924465  0.52194247    -0.11800
C720        C  0.85011742  0.42692515  0.50659004     0.19700
C721        C  0.86686271  0.44307491  0.52334099    -0.13900
C722        C  0.86750148  0.44155850  0.55518894    -0.12200
C723        C  0.84946872  0.42847237  0.47372575     0.00600
C724        C  0.84875729  0.42956906  0.44621915    -0.32200
C725        C  0.85210293  0.42242338  0.60341075     0.02000
C726        C  0.85313094  0.42173835  0.63092580    -0.33800
H727        H  0.82209802  0.39398466  0.56536063     0.13100
H728        H  0.82097348  0.39664459  0.50929376     0.12900
H729        H  0.87941432  0.45682460  0.51179486     0.12800
H730        H  0.88053765  0.45416538  0.56783203     0.11800
C731        C  0.85486029  0.42702089  0.07035962     0.18100
C732        C  0.87127204  0.42786899  0.05239044    -0.11000
C733        C  0.87085991  0.42974901  0.02057944    -0.11800
C734        C  0.85404312  0.43081188  0.00654602     0.19700
C735        C  0.83767471  0.43002893  0.02452960    -0.13900
C736        C  0.83808620  0.42814900  0.05632452    -0.12200
C737        C  0.85337985  0.43238538  0.97373417     0.00600
C738        C  0.85233423  0.43325362  0.94626918    -0.32200
C739        C  0.85528658  0.42514138  0.10314919     0.02000
C740        C  0.85584445  0.42393246  0.13063021    -0.33800
H741        H  0.88435196  0.42705404  0.06295437     0.13100
H742        H  0.88359736  0.43031112  0.00694553     0.12900
H743        H  0.82457371  0.43080839  0.01397171     0.12800
H744        H  0.82532689  0.42755181  0.06994441     0.11800
C745        C  0.27559500  0.68505748  0.45925825     0.18100
C746        C  0.29475039  0.68654951  0.46880448    -0.11000
C747        C  0.31391365  0.70585179  0.46631068    -0.11800
C748        C  0.31405871  0.72382524  0.45432542     0.19700
C749        C  0.29491967  0.72230009  0.44461400    -0.13900
C750        C  0.27575912  0.70300036  0.44710644    -0.12200
C751        C  0.33381950  0.74371081  0.45147298     0.00600
C752        C  0.35015441  0.76032461  0.44752524    -0.32200
C753        C  0.25574087  0.66536676  0.46295000     0.02000
C754        C  0.23915718  0.64916846  0.46775120    -0.33800
H755        H  0.29485302  0.67283640  0.47834490     0.13100
H756        H  0.32858690  0.70676855  0.47377963     0.12900
H757        H  0.29480355  0.73603407  0.43518197     0.12800
H758        H  0.26107586  0.70210766  0.43974384     0.11800
C759        C  0.02040528  0.48383248  0.64879575     0.18100
C760        C  0.02165676  0.48184712  0.68049819    -0.11000
C761        C  0.00321705  0.47336168  0.69843702    -0.11800
C762        C  0.98341203  0.46680951  0.68477687     0.19700
C763        C  0.98213292  0.46850128  0.65303078    -0.13900
C764        C  0.00056100  0.47698639  0.63510505    -0.12200
C765        C  0.96457446  0.45945033  0.70333321     0.00600
C766        C  0.94869702  0.45452595  0.71807390    -0.32200
C767        C  0.03957049  0.49417250  0.63067318     0.02000
C768        C  0.05584779  0.50444683  0.61643861    -0.33800
H769        H  0.03691819  0.48724573  0.69140550     0.13100
H770        H  0.00445370  0.47228177  0.72296640     0.12900
H771        H  0.96694782  0.46363494  0.64221092     0.12800
H772        H  0.99938598  0.47859676  0.61067906     0.11800
C773        C  0.97974555  0.51669994  0.40039820     0.18100
C774        C  0.97844646  0.51040278  0.43096351    -0.11000
C775        C  0.99666500  0.51923647  0.44931418    -0.11800
C776        C  0.01633991  0.53446196  0.43725942     0.19700
C777        C  0.01761693  0.54103030  0.40680912    -0.13900
C778        C  0.99936051  0.53217304  0.38841594    -0.12200
C779        C  0.03533669  0.54220594  0.45554962     0.00600
C780        C  0.05123687  0.54712690  0.47022037    -0.32200
C781        C  0.96110103  0.50636687  0.38123020     0.02000
C782        C  0.94492959  0.49587743  0.36686903    -0.33800
H783        H  0.96341350  0.49836359  0.44045052     0.13100
H784        H  0.99548358  0.51388682  0.47271248     0.12900
H785        H  0.03276811  0.55266187  0.39713748     0.12800
H786        H  0.00061218  0.53708690  0.36477911     0.11800
C787        C  0.27694855  0.68376330  0.96158416     0.18100
C788        C  0.29308962  0.68535990  0.94222208    -0.11000
C789        C  0.31203568  0.70481763  0.93892973    -0.11800
C790        C  0.31501228  0.72282767  0.95500549     0.19700
C791        C  0.29888676  0.72120552  0.97440328    -0.13900
C792        C  0.27995565  0.70176393  0.97769161    -0.12200
C793        C  0.33436393  0.74301803  0.95106693     0.00600
C794        C  0.35034194  0.75987184  0.94647938    -0.32200
C795        C  0.25738556  0.66372760  0.96525288     0.02000
C796        C  0.24086704  0.64738348  0.96986373    -0.33800
H797        H  0.29102684  0.67159711  0.92966523     0.13100
H798        H  0.32432219  0.70583395  0.92378011     0.12900
H799        H  0.30091234  0.73497649  0.98689954     0.12800
H800        H  0.26765048  0.70077578  0.99277600     0.11800
C801        C  0.98393893  0.46694373  0.18665996     0.18100
C802        C  0.98309337  0.45793835  0.15795963    -0.11000
C803        C  0.00115162  0.46658605  0.13916093    -0.11800
C804        C  0.02013806  0.48429573  0.14896701     0.19700
C805        C  0.02100563  0.49313545  0.17778109    -0.13900
C806        C  0.00298739  0.48450783  0.19653635    -0.12200
C807        C  0.03859903  0.49400305  0.12935034     0.00600
C808        C  0.05470852  0.50392821  0.11461407    -0.32200
C809        C  0.96505892  0.45902901  0.20528269     0.02000
C810        C  0.94920825  0.45386075  0.22022816    -0.33800
H811        H  0.96841837  0.44446061  0.14994490     0.13100
H812        H  0.00023041  0.45965768  0.11689292     0.12900
H813        H  0.03554451  0.50688303  0.18558548     0.12800
H814        H  0.00382282  0.49173073  0.21853853     0.11800
C815        C  0.15010729  0.57035673  0.75452381     0.18100
C816        C  0.16618438  0.58762889  0.77055975    -0.11000
C817        C  0.16527437  0.58853802  0.80244030    -0.11800
C818        C  0.14828230  0.57217855  0.81852100     0.19700
C819        C  0.13216209  0.55491608  0.80249206    -0.13900
C820        C  0.13307260  0.55400631  0.77058852    -0.12200
C821        C  0.14742762  0.57311886  0.85140076     0.00600
C822        C  0.14664051  0.57389696  0.87891365    -0.32200
C823        C  0.15114066  0.56946251  0.72165627     0.02000
C824        C  0.15219416  0.56895067  0.69414442    -0.33800
H825        H  0.17942466  0.60037567  0.75842596     0.13100
H826        H  0.17782179  0.60197303  0.81454052     0.12900
H827        H  0.11892723  0.54217298  0.81464131     0.12800
H828        H  0.12053087  0.54057390  0.75847521     0.11800
C829        C  0.14556052  0.57377631  0.31884433     0.18100
C830        C  0.13699119  0.55389598  0.30452976    -0.11000
C831        C  0.13792488  0.55257462  0.27268837    -0.11800
C832        C  0.14743060  0.57112683  0.25495289     0.19700
C833        C  0.15593021  0.59099559  0.26926726    -0.13900
C834        C  0.15499694  0.59231642  0.30109816    -0.12200
C835        C  0.14860971  0.56982702  0.22215335     0.00600
C836        C  0.14983510  0.56898431  0.19470319    -0.32200
C837        C  0.14475371  0.57514937  0.35167971     0.02000
C838        C  0.14401371  0.57611665  0.37917838    -0.33800
H839        H  0.12964496  0.53944043  0.31797339     0.13100
H840        H  0.13129517  0.53711737  0.26192507     0.12900
H841        H  0.16332147  0.60545597  0.25583693     0.12800
H842        H  0.16167190  0.60777741  0.31186183     0.11800
C843        C  0.01964704  0.53502365  0.93026220     0.18100
C844        C  0.01711599  0.52196016  0.90517713    -0.11000
C845        C  0.99888993  0.51400984  0.88693662    -0.11800
C846        C  0.98304322  0.51907264  0.89359585     0.19700
C847        C  0.98575525  0.53250915  0.91830419    -0.13900
C848        C  0.00402629  0.54048149  0.93658431    -0.12200
C849        C  0.96341125  0.50910896  0.87648020     0.00600
C850        C  0.94669745  0.49871385  0.86327684    -0.32200
C851        C  0.03783920  0.54192714  0.95005850     0.02000
C852        C  0.05316811  0.54622494  0.96575204    -0.33800
H853        H  0.02903472  0.51756985  0.90008603     0.13100
H854        H  0.99692899  0.50351736  0.86806838     0.12900
H855        H  0.97355542  0.53641906  0.92384244     0.12800
H856        H  0.00576250  0.55051959  0.95595064     0.11800
C857        C  0.40494398  0.72223111  0.79740851     0.18100
C858        C  0.42128994  0.72277488  0.77966105    -0.11000
C859        C  0.42119688  0.70391254  0.77261511    -0.11800
C860        C  0.40479048  0.68433934  0.78331234     0.19700
C861        C  0.38837051  0.68376449  0.80094961    -0.13900
C862        C  0.38846539  0.70264691  0.80800678    -0.12200
C863        C  0.40473135  0.66494074  0.77562881     0.00600
C864        C  0.40516242  0.64927904  0.76727671    -0.32200
C865        C  0.40551766  0.74178076  0.80572937     0.02000
C866        C  0.40629531  0.75792335  0.81463340    -0.33800
H867        H  0.43417225  0.73778173  0.77143644     0.13100
H868        H  0.43394443  0.70459651  0.75886598     0.12900
H869        H  0.37554469  0.66875907  0.80927735     0.12800
H870        H  0.37577692  0.70198968  0.82187158     0.11800
C871        C  0.27857976  0.59166100  0.61093148     0.18100
C872        C  0.29704177  0.61040766  0.61943266    -0.11000
C873        C  0.31605045  0.61030066  0.62444162    -0.11800
C874        C  0.31672768  0.59146174  0.62088815     0.19700
C875        C  0.29828055  0.57272926  0.61228693    -0.13900
C876        C  0.27927457  0.57283602  0.60728182    -0.12200
C877        C  0.33615503  0.59121531  0.62689195     0.00600
C878        C  0.35209408  0.59072082  0.63328975    -0.32200
C879        C  0.25915186  0.59187998  0.60482634     0.02000
C880        C  0.24315166  0.59195659  0.59745994    -0.33800
H881        H  0.29675416  0.62509402  0.62210841     0.13100
H882        H  0.33018459  0.62487215  0.63115508     0.12900
H883        H  0.29857760  0.55805181  0.60953605     0.12800
H884        H  0.26515352  0.55827340  0.60049786     0.11800
C885        C  0.40553602  0.68340454  0.28660430     0.18100
C886        C  0.42447040  0.70164952  0.29511203    -0.11000
C887        C  0.42448996  0.72049599  0.30184040    -0.11800
C888        C  0.40558894  0.72124873  0.30002048     0.19700
C889        C  0.38663971  0.70301311  0.29146355    -0.13900
C890        C  0.38662158  0.68414827  0.28471839    -0.12200
C891        C  0.40559239  0.74051271  0.30804557     0.00600
C892        C  0.40601931  0.75648456  0.31682004    -0.32200
C893        C  0.40572053  0.66421173  0.27873876     0.02000
C894        C  0.40626224  0.64868693  0.27016260    -0.33800
H895        H  0.43921497  0.70131931  0.29646955     0.13100
H896        H  0.43921847  0.73445114  0.30856815     0.12900
H897        H  0.37190383  0.70335957  0.29011419     0.12800
H898        H  0.37190330  0.67018589  0.27798014     0.11800
C899        C  0.27765669  0.59150313  0.11694319     0.18100
C900        C  0.28760476  0.58686409  0.09310713    -0.11000
C901        C  0.30658703  0.58681310  0.09837994    -0.11800
C902        C  0.31576487  0.59141865  0.12753096     0.19700
C903        C  0.30583494  0.59606994  0.15141610    -0.13900
C904        C  0.28681724  0.59612265  0.14613285    -0.12200
C905        C  0.33521040  0.59112922  0.13297400     0.00600
C906        C  0.35125503  0.59057956  0.13825492    -0.32200
C907        C  0.25817858  0.59161878  0.11101630     0.02000
C908        C  0.24221451  0.59148367  0.10292321    -0.33800
H909        H  0.28068175  0.58329180  0.07043271     0.13100
H910        H  0.31408180  0.58316043  0.07975972     0.12900
H911        H  0.31277180  0.59962125  0.17407841     0.12800
H912        H  0.27929070  0.59975524  0.16472805     0.11800
C913        C  0.42712775  0.57737559  0.92337844     0.18100
C914        C  0.43563469  0.56604589  0.93784371    -0.11000
C915        C  0.43490460  0.56413133  0.96972610    -0.11800
C916        C  0.42566389  0.57353380  0.98733770     0.19700
C917        C  0.41723467  0.58492423  0.97286881    -0.13900
C918        C  0.41796467  0.58683804  0.94100093    -0.12200
C919        C  0.42477401  0.57145542  0.02018116     0.00600
C920        C  0.42408514  0.56968540  0.04766620    -0.32200
C921        C  0.42771431  0.57924237  0.89051887     0.02000
C922        C  0.42816486  0.58084397  0.86302133    -0.33800
H923        H  0.44277782  0.55866880  0.92449373     0.13100
H924        H  0.44149477  0.55529897  0.98062272     0.12900
H925        H  0.41006685  0.59228142  0.98620594     0.12800
H926        H  0.41134988  0.59564923  0.93010942     0.11800
C927        C  0.42825064  0.57371937  0.48759998     0.18100
C928        C  0.44159932  0.56872511  0.47070783    -0.11000
C929        C  0.44256113  0.57073302  0.43883189    -0.11800
C930        C  0.43018028  0.57775062  0.42363997     0.19700
C931        C  0.41691092  0.58283666  0.44054872    -0.13900
C932        C  0.41594926  0.58082920  0.47241346    -0.12200
C933        C  0.43094767  0.57959677  0.39075917     0.00600
C934        C  0.43134656  0.58112279  0.36324404    -0.32200
C935        C  0.42706717  0.57142274  0.52042474     0.02000
C936        C  0.42603288  0.56942749  0.54788558    -0.33800
H937        H  0.45119762  0.56322095  0.48215650     0.13100
H938        H  0.45288836  0.56675473  0.42604720     0.12900
H939        H  0.40726496  0.58828340  0.42909924     0.12800
H940        H  0.40557443  0.58475084  0.48518336     0.11800
C941        C  0.59387069  0.27784654  0.05290057     0.18100
C942        C  0.57495782  0.27862426  0.05428442    -0.11000
C943        C  0.57497088  0.29737863  0.04676031    -0.11800
C944        C  0.59390974  0.31550940  0.03788508     0.19700
C945        C  0.61284658  0.31477258  0.03670751    -0.13900
C946        C  0.61283339  0.29601932  0.04423157    -0.12200
C947        C  0.59377685  0.33457591  0.02888220     0.00600
C948        C  0.59355827  0.35014230  0.01961383    -0.32200
C949        C  0.59389024  0.25858445  0.06104942     0.02000
C950        C  0.59379701  0.24270655  0.06955835    -0.33800
H951        H  0.56021087  0.26473559  0.06111921     0.13100
H952        H  0.56020867  0.29769835  0.04766894     0.12900
H953        H  0.62758145  0.32864100  0.02978538     0.12800
H954        H  0.62758328  0.29568077  0.04323596     0.11800
C955        C  0.72381697  0.40852935  0.86956680     0.18100
C956        C  0.70548499  0.39522619  0.85267951    -0.11000
C957        C  0.68667884  0.39571532  0.85756332    -0.11800
C958        C  0.68607584  0.40954135  0.87933897     0.19700
C959        C  0.70436241  0.42274857  0.89642996    -0.13900
C960        C  0.72320146  0.42226535  0.89152904    -0.12200
C961        C  0.66670103  0.41011511  0.88416180     0.00600
C962        C  0.65052675  0.41053197  0.88900002    -0.32200
C963        C  0.74337161  0.40864122  0.86317802     0.02000
C964        C  0.75926165  0.40867606  0.85489924    -0.33800
H965        H  0.70579105  0.38462339  0.83552050     0.13100
H966        H  0.67265804  0.38540923  0.84425066     0.12900
H967        H  0.70408612  0.43348464  0.91338060     0.12800
H968        H  0.73729242  0.43270957  0.90461438     0.11800
C969        C  0.53329470  0.51591953  0.85294093     0.18100
C970        C  0.52299381  0.50659650  0.82538243    -0.11000
C971        C  0.51406637  0.51619381  0.80764064    -0.11800
C972        C  0.51537099  0.53521791  0.81727495     0.19700
C973        C  0.52598664  0.54475781  0.84458492    -0.13900
C974        C  0.53492962  0.53514131  0.86236199    -0.12200
C975        C  0.50468259  0.54412478  0.80006007     0.00600
C976        C  0.49418580  0.55011795  0.78632144    -0.32200
C977        C  0.54121247  0.50513384  0.87199510     0.02000
C978        C  0.54638882  0.49449127  0.88703998    -0.33800
H979        H  0.52152720  0.49170121  0.81788030     0.13100
H980        H  0.50579547  0.50856650  0.78670822     0.12900
H981        H  0.52699677  0.55938837  0.85241261     0.12800
H982        H  0.54276386  0.54248007  0.88366438     0.11800
C983        C  0.46632530  0.48350814  0.10145967     0.18100
C984        C  0.47713427  0.49315949  0.07435165    -0.11000
C985        C  0.48585201  0.48346127  0.05639727    -0.11800
C986        C  0.48381644  0.46400800  0.06537005     0.19700
C987        C  0.47273084  0.45416998  0.09225438    -0.13900
C988        C  0.46399713  0.46388922  0.11024745    -0.12200
C989        C  0.49423849  0.45492782  0.04794443     0.00600
C990        C  0.50459425  0.44879592  0.03415881    -0.32200
C991        C  0.45858710  0.49434460  0.12071213     0.02000
C992        C  0.45363000  0.50509477  0.13589381    -0.33800
H993        H  0.47914314  0.50836882  0.06736635     0.13100
H994        H  0.49451146  0.49132126  0.03581530     0.12900
H995        H  0.47117670  0.43920982  0.09957754     0.12800
H996        H  0.45577198  0.45630483  0.13121561     0.11800
C997        C  0.59256531  0.31457888  0.53749791     0.18100
C998        C  0.58130452  0.30289860  0.56323098    -0.11000
C999        C  0.58106286  0.28404697  0.57081536    -0.11800
C1000       C  0.59204071  0.27673577  0.55268669     0.19700
C1001       C  0.60331387  0.28842620  0.52697539    -0.13900
C1002       C  0.60355659  0.30727487  0.51939340    -0.12200
C1003       C  0.59199458  0.25746826  0.56087274     0.00600
C1004       C  0.59191746  0.24165026  0.56957677    -0.32200
C1005       C  0.59248909  0.33375946  0.52913550     0.02000
C1006       C  0.59233077  0.34940892  0.52017512    -0.33800
H1007       H  0.57268544  0.30832217  0.57735226     0.13100
H1008       H  0.57233551  0.27518429  0.59080683     0.12900
H1009       H  0.61190907  0.28298895  0.51282820     0.12800
H1010       H  0.61226139  0.31612008  0.49937842     0.11800
C1011       C  0.68361458  0.40747027  0.37514378     0.18100
C1012       C  0.69960449  0.41490312  0.39750274    -0.11000
C1013       C  0.71858586  0.41478903  0.39203265    -0.11800
C1014       C  0.72170575  0.40721787  0.36416561     0.19700
C1015       C  0.70573186  0.39982720  0.34179536    -0.13900
C1016       C  0.68676336  0.39994342  0.34726066    -0.12200
C1017       C  0.74132997  0.40728700  0.35812544     0.00600
C1018       C  0.75740766  0.40734834  0.35064760    -0.32200
C1019       C  0.66402795  0.40754924  0.38089658     0.02000
C1020       C  0.64788264  0.40785235  0.38672522    -0.33800
H1021       H  0.69739934  0.42078777  0.41914961     0.13100
H1022       H  0.73081042  0.42062218  0.40947766     0.12900
H1023       H  0.70795745  0.39400572  0.32010325     0.12800
H1024       H  0.67457507  0.39417539  0.32976367     0.11800
C1025       C  0.57377812  0.42472639  0.67347059     0.18100
C1026       C  0.58436857  0.41646342  0.69048156    -0.11000
C1027       C  0.58570707  0.41860954  0.72232719    -0.11800
C1028       C  0.57646815  0.42903987  0.73740489     0.19700
C1029       C  0.56603548  0.43747546  0.72037226    -0.13900
C1030       C  0.56469597  0.43532774  0.68850963    -0.12200
C1031       C  0.57738258  0.43075893  0.77031762     0.00600
C1032       C  0.57782248  0.43198301  0.79788062    -0.32200
C1033       C  0.57208084  0.42212067  0.64069396     0.02000
C1034       C  0.57077224  0.41973670  0.61329443    -0.33800
H1035       H  0.59147686  0.40825582  0.67915030     0.13100
H1036       H  0.59381638  0.41201894  0.73519531     0.12900
H1037       H  0.55882587  0.44557776  0.73172732     0.12800
H1038       H  0.55648458  0.44181065  0.67564422     0.11800
C1039       C  0.57075046  0.42060377  0.17387227     0.18100
C1040       C  0.55469706  0.42198948  0.18973207    -0.11000
C1041       C  0.55549152  0.42376852  0.22162585    -0.11800
C1042       C  0.57234328  0.42417145  0.23787476     0.19700
C1043       C  0.58834549  0.42268292  0.22202877    -0.13900
C1044       C  0.58755081  0.42090344  0.19013124    -0.12200
C1045       C  0.57329468  0.42629255  0.27071378     0.00600
C1046       C  0.57405584  0.42821838  0.29817755    -0.32200
C1047       C  0.57005507  0.41900510  0.14097207     0.02000
C1048       C  0.56958942  0.41770733  0.11343202    -0.33800
H1049       H  0.54162079  0.42176550  0.17744905     0.13100
H1050       H  0.54302124  0.42490370  0.23359150     0.12900
H1051       H  0.60145537  0.42297236  0.23430669     0.12800
H1052       H  0.60005449  0.41983315  0.17815578     0.11800
C1053       C  0.53293659  0.51519044  0.35201244     0.18100
C1054       C  0.51896604  0.50397685  0.32806415    -0.11000
C1055       C  0.51070499  0.51385699  0.30961046    -0.11800
C1056       C  0.51634886  0.53506387  0.31489206     0.19700
C1057       C  0.53052207  0.54641017  0.33863013    -0.13900
C1058       C  0.53881275  0.53650097  0.35713726    -0.12200
C1059       C  0.50651327  0.54456041  0.29705871     0.00600
C1060       C  0.49636721  0.55083152  0.28304170    -0.32200
C1061       C  0.54058462  0.50442830  0.37159896     0.02000
C1062       C  0.54547429  0.49365040  0.38684685    -0.33800
H1063       H  0.51423471  0.48748888  0.32390253     0.13100
H1064       H  0.49964644  0.50484852  0.29152059     0.12900
H1065       H  0.53489106  0.56276530  0.34311740     0.12800
H1066       H  0.54954544  0.54534053  0.37562276     0.11800
C1067       C  0.48301141  0.46244658  0.56864119     0.18100
C1068       C  0.48202174  0.45967931  0.60044379    -0.11000
C1069       C  0.47333077  0.46921872  0.61887945    -0.11800
C1070       C  0.46556488  0.48158432  0.60562535     0.19700
C1071       C  0.46620313  0.48401597  0.57379195    -0.13900
C1072       C  0.47489507  0.47449208  0.55537294    -0.12200
C1073       C  0.45816613  0.49286908  0.62458384     0.00600
C1074       C  0.45327026  0.50387360  0.63927385    -0.32200
C1075       C  0.49359066  0.45413163  0.54992267     0.02000
C1076       C  0.50399083  0.44842607  0.53531953    -0.33800
H1077       H  0.48837793  0.45053797  0.61102909     0.13100
H1078       H  0.47307502  0.46732069  0.64345530     0.12900
H1079       H  0.46039331  0.49364701  0.56326079     0.12800
H1080       H  0.47569594  0.47689686  0.53087155     0.11800
loop_ 
_geom_bond_atom_site_label_1 
_geom_bond_atom_site_label_2 
_geom_bond_distance 
_geom_bond_site_symmetry_2 
_ccdc_geom_bond_type 
O1           Mg3   2.138       .  S
O1           Mg9   2.143       .  S
O1           C36   1.238       .  S
C2           O15   1.237       .  S
C2           O39   1.270       .  A
C2           H41   1.081       .  S
Mg3          O32   2.153       .  S
Mg3          O47   2.326       .  S
Mg3          O43   2.268       .  S
Mg3          O14   2.308       .  S
O4          Mg46   2.152       .  S
O4          Mg29   2.142       .  S
O4           C25   1.236       .  S
O5           C36   1.272       .  A
O5          Mg29   2.299       .  S
C6            O8   1.270       .  A
C6           O20   1.276       .  A
C6         C1076   1.440       .  S
O7           C35   1.273       .  A
O7           Mg9   2.306       .  S
O8          Mg40   2.263       .  S
Mg9          O15   2.128       .  S
Mg9          O23   2.254       .  S
Mg9          O11   2.310       .  S
C10          O48   1.274       .  A
C10          O16   1.275       .  A
C10        C1062   1.440       .  S
O11          C18   1.274       .  A
H12          C25   1.081       .  S
C13          O27   1.237       .  S
C13          O28   1.271       .  A
C13          H38   1.081       .  S
O14          C37   1.272       .  A
O15         Mg29   2.147       .  S
O16         Mg46   2.310       .  S
C17          O30   1.273       .  A
C17          O22   1.276       .  A
C17        C1046   1.439       .  S
C18          O45   1.273       .  A
C18        C1020   1.441       .  S
Mg19         O26   2.156       .  S
Mg19         O27   2.158       .  S
Mg19         O20   2.322       .  S
Mg19         O21   2.294       .  S
Mg19         O48   2.282       .  S
O21          C25   1.269       .  A
O22         Mg29   2.314       .  S
O23          C42   1.269       .  A
O24          C44   1.274       .  A
O24         Mg40   2.314       .  S
O26         Mg40   2.156       .  S
O26          C37   1.237       .  S
O27         Mg46   2.151       .  S
O28         Mg40   2.301       .  S
Mg29         O45   2.283       .  S
O30         Mg46   2.276       .  S
H31          C36   1.081       .  S
O32         Mg40   2.150       .  S
O32          C35   1.239       .  S
H33          C35   1.081       .  S
H34          C37   1.081       .  S
O39         Mg46   2.291       .  S
C42          O47   1.276       .  A
C42        C1006   1.438       .  S
O43          C44   1.271       .  A
C44        C1034   1.439       .  S
O49         Mg51   2.136   1_556  S
O49         Mg57   2.143       .  S
O49          C84   1.238       .  S
C50          O63   1.236       .  S
C50          O87   1.269       .  A
C50          H89   1.081       .  S
Mg51         O80   2.154       .  S
Mg51         O95   2.325       .  S
Mg51         O91   2.264       .  S
Mg51         O62   2.309       .  S
O52         Mg94   2.151       .  S
O52         Mg77   2.138       .  S
O52          C73   1.235       .  S
O53          C84   1.272       .  A
O53         Mg77   2.299       .  S
C54          O56   1.271       .  A
C54          O68   1.275   1_554  A
C54         C990   1.439       .  S
O55          C83   1.273       .  A
O55         Mg57   2.306       .  S
O56         Mg88   2.267       .  S
Mg57         O63   2.130       .  S
Mg57         O71   2.259       .  S
Mg57         O59   2.300       .  S
C58          O96   1.274       .  A
C58          O64   1.274       .  A
C58         C978   1.440       .  S
O59          C66   1.273       .  A
H60          C73   1.081       .  S
C61          O75   1.236       .  S
C61          O76   1.271       .  A
C61          H86   1.081       .  S
O62          C85   1.272       .  A
O63         Mg77   2.149       .  S
O64         Mg94   2.306       .  S
C65          O78   1.273       .  A
C65          O70   1.277       .  A
C65        C1032   1.440       .  S
C66          O93   1.273       .  A
C66         C962   1.437       .  S
Mg67         O74   2.160       .  S
Mg67         O75   2.160       .  S
Mg67         O68   2.316       .  S
Mg67         O69   2.292       .  S
Mg67         O96   2.285       .  S
O69          C73   1.269       .  A
O70         Mg77   2.320       .  S
O71          C90   1.269   1_556  A
O72          C92   1.275       .  A
O72         Mg88   2.317       .  S
O74         Mg88   2.158   1_556  S
O74          C85   1.237   1_556  S
O75         Mg94   2.153       .  S
O76         Mg88   2.301   1_556  S
Mg77         O93   2.281       .  S
O78         Mg94   2.275       .  S
H79          C84   1.081       .  S
O80         Mg88   2.150       .  S
O80          C83   1.239   1_554  S
H81          C83   1.081       .  S
H82          C85   1.081       .  S
O87         Mg94   2.290       .  S
C90          O95   1.275       .  A
C90         C948   1.440       .  S
O91          C92   1.270       .  A
C92        C1048   1.439       .  S
O97         Mg99   2.140       .  S
O97        Mg105   2.145       .  S
O97         C132   1.238       .  S
C98         O111   1.236       .  S
C98         O135   1.269       .  A
C98         H137   1.081       .  S
Mg99        O128   2.155       .  S
Mg99        O143   2.326       .  S
Mg99        O139   2.269       .  S
Mg99        O110   2.306       .  S
O100       Mg142   2.151       .  S
O100       Mg125   2.137       .  S
O100        C121   1.236       .  S
O101        C132   1.272       .  A
O101       Mg125   2.302       .  S
C102        O104   1.271       .  A
C102        O116   1.275       .  A
C102       C1060   1.439       .  S
O103        C131   1.272       .  A
O103       Mg105   2.303       .  S
O104       Mg136   2.265       .  S
Mg105       O111   2.128       .  S
Mg105       O119   2.249       .  S
Mg105       O107   2.297       .  S
C106        O144   1.273       .  A
C106        O112   1.274       .  A
C106        C992   1.439       .  S
O107        C114   1.272       .  A
H108        C121   1.081       .  S
C109        O123   1.236       .  S
C109        O124   1.271       .  A
C109        H134   1.081       .  S
O110        C133   1.272       .  A
O111       Mg125   2.147       .  S
O112       Mg142   2.305       .  S
C113        O126   1.273       .  A
C113        O118   1.276       .  A
C113        C920   1.439       .  S
C114        O141   1.272       .  A
C114        C906   1.436       .  S
Mg115       O122   2.156       .  S
Mg115       O123   2.158       .  S
Mg115       O116   2.318       .  S
Mg115       O117   2.293       .  S
Mg115       O144   2.282       .  S
O117        C121   1.269       .  A
O118       Mg125   2.317       .  S
O119        C138   1.268       .  A
O120        C140   1.274       .  A
O120       Mg136   2.315       .  S
O122       Mg136   2.157       .  S
O122        C133   1.237       .  S
O123       Mg142   2.150       .  S
O124       Mg136   2.300       .  S
Mg125       O141   2.278       .  S
O126       Mg142   2.273       .  S
H127        C132   1.081       .  S
O128       Mg136   2.148       .  S
O128        C131   1.238       .  S
H129        C131   1.081       .  S
H130        C133   1.081       .  S
O135       Mg142   2.291       .  S
C138        O143   1.276       .  A
C138        C894   1.437       .  S
O139        C140   1.271       .  A
C140        C934   1.439       .  S
O145       Mg147   2.141       .  S
O145       Mg153   2.146       .  S
O145        C180   1.238       .  S
C146        O159   1.237       .  S
C146        O183   1.270       .  A
C146        H185   1.081       .  S
Mg147       O176   2.155       .  S
Mg147       O191   2.335       .  S
Mg147       O187   2.272       .  S
Mg147       O158   2.308       .  S
O148       Mg190   2.151       .  S
O148       Mg173   2.138       .  S
O148        C169   1.236       .  S
O149        C180   1.272       .  A
O149       Mg173   2.302       .  S
C150        O152   1.271       .  A
C150        O164   1.275       .  A
C150        C976   1.440       .  S
O151        C179   1.272       .  A
O151       Mg153   2.305       .  S
O152       Mg184   2.272       .  S
Mg153       O159   2.132       .  S
Mg153       O167   2.257       .  S
Mg153       O155   2.304       .  S
C154        O192   1.273       .  A
C154        O160   1.275       .  A
C154       C1074   1.440       .  S
O155        C162   1.273       .  A
H156        C169   1.081       .  S
C157        O171   1.236       .  S
C157        O172   1.270       .  A
C157        H182   1.081       .  S
O158        C181   1.272       .  A
O159       Mg173   2.148       .  S
O160       Mg190   2.309       .  S
C161        O174   1.273       .  A
C161        O166   1.276       .  A
C161        C936   1.439       .  S
C162        O189   1.272       .  A
C162        C878   1.438       .  S
Mg163       O170   2.157       .  S
Mg163       O171   2.158       .  S
Mg163       O164   2.315       .  S
Mg163       O165   2.293       .  S
Mg163       O192   2.282       .  S
O165        C169   1.269       .  A
O166       Mg173   2.315       .  S
O167        C186   1.270       .  A
O168        C188   1.274       .  A
O168       Mg184   2.309       .  S
O170       Mg184   2.158       .  S
O170        C181   1.237       .  S
O171       Mg190   2.147       .  S
O172       Mg184   2.298       .  S
Mg173       O189   2.276       .  S
O174       Mg190   2.275       .  S
H175        C180   1.081       .  S
O176       Mg184   2.153       .  S
O176        C179   1.238       .  S
H177        C179   1.081       .  S
H178        C181   1.081       .  S
O183       Mg190   2.293       .  S
C186        O191   1.277       .  A
C186        C864   1.441       .  S
O187        C188   1.272       .  A
C188        C922   1.438       .  S
O193       Mg195   2.142       .  S
O193       Mg201   2.143       .  S
O193        C228   1.238       .  S
C194        O207   1.237       .  S
C194        O231   1.270       .  A
C194        H233   1.081       .  S
Mg195       O224   2.155       .  S
Mg195       O239   2.322       .  S
Mg195       O235   2.269       .  S
Mg195       O206   2.305       .  S
O196       Mg238   2.152       .  S
O196       Mg221   2.140       .  S
O196        C217   1.236       .  S
O197        C228   1.272       .  A
O197       Mg221   2.301   1_554  S
C198        O200   1.271       .  A
C198        O212   1.276       .  A
C198        C808   1.439       .  S
O199        C227   1.273       .  A
O199       Mg201   2.307       .  S
O200       Mg232   2.264       .  S
Mg201       O207   2.126   1_554  S
Mg201       O215   2.248       .  S
Mg201       O203   2.310       .  S
C202        O240   1.273   1_556  A
C202        O208   1.274       .  A
C202        C852   1.438       .  S
O203        C210   1.274   1_554  A
H204        C217   1.081       .  S
C205        O219   1.236       .  S
C205        O220   1.270       .  A
C205        H230   1.081       .  S
O206        C229   1.272       .  A
O207       Mg221   2.147       .  S
O208       Mg238   2.302       .  S
C209        O222   1.272       .  A
C209        O214   1.276       .  A
C209        C822   1.439       .  S
C210        O237   1.274       .  A
C210        C796   1.443       .  S
Mg211       O218   2.154       .  S
Mg211       O219   2.158       .  S
Mg211       O212   2.320       .  S
Mg211       O213   2.293       .  S
Mg211       O240   2.281       .  S
O213        C217   1.269   1_554  A
O214       Mg221   2.319       .  S
O215        C234   1.268       .  A
O216        C236   1.274       .  A
O216       Mg232   2.314       .  S
O218       Mg232   2.156       .  S
O218        C229   1.237       .  S
O219       Mg238   2.151   1_554  S
O220       Mg232   2.300       .  S
Mg221       O237   2.288       .  S
O222       Mg238   2.270       .  S
H223        C228   1.081       .  S
O224       Mg232   2.149       .  S
O224        C227   1.239       .  S
H225        C227   1.081       .  S
H226        C229   1.081       .  S
O231       Mg238   2.290       .  S
C234        O239   1.275       .  A
C234        C908   1.436       .  S
O235        C236   1.271       .  A
C236        C836   1.439       .  S
O241       Mg243   2.142       .  S
O241       Mg249   2.144       .  S
O241        C276   1.238       .  S
C242        O255   1.236       .  S
C242        O279   1.269       .  A
C242        H281   1.081       .  S
Mg243       O272   2.154       .  S
Mg243       O287   2.328       .  S
Mg243       O283   2.271       .  S
Mg243       O254   2.308       .  S
O244       Mg286   2.152       .  S
O244       Mg269   2.138       .  S
O244        C265   1.236       .  S
O245        C276   1.272       .  A
O245       Mg269   2.302       .  S
C246        O248   1.271       .  A
C246        O260   1.275       .  A
C246        C768   1.439       .  S
O247        C275   1.273       .  A
O247       Mg249   2.307       .  S
O248       Mg280   2.265       .  S
Mg249       O255   2.125       .  S
Mg249       O263   2.248       .  S
Mg249       O251   2.305       .  S
C250        O288   1.273       .  A
C250        O256   1.274       .  A
C250        C780   1.438       .  S
O251        C258   1.274       .  A
H252        C265   1.081       .  S
C253        O267   1.236       .  S
C253        O268   1.270       .  A
C253        H278   1.081       .  S
O254        C277   1.272       .  A
O255       Mg269   2.146       .  S
O256       Mg286   2.302       .  S
C257        O270   1.273       .  A
C257        O262   1.276       .  A
C257        C838   1.439       .  S
C258        O285   1.273       .  A
C258        C754   1.440       .  S
Mg259       O266   2.156       .  S
Mg259       O267   2.158       .  S
Mg259       O260   2.317       .  S
Mg259       O261   2.292       .  S
Mg259       O288   2.281       .  S
O261        C265   1.269       .  A
O262       Mg269   2.318       .  S
O263        C282   1.268       .  A
O264        C284   1.274       .  A
O264       Mg280   2.312       .  S
O266       Mg280   2.157       .  S
O266        C277   1.237       .  S
O267       Mg286   2.150       .  S
O268       Mg280   2.299       .  S
Mg269       O285   2.284       .  S
O270       Mg286   2.272       .  S
H271        C276   1.081       .  S
O272       Mg280   2.149       .  S
O272        C275   1.238       .  S
H273        C275   1.081       .  S
H274        C277   1.081       .  S
O279       Mg286   2.289       .  S
C282        O287   1.276       .  A
C282        C880   1.437       .  S
O283        C284   1.271       .  A
C284        C824   1.439       .  S
O289       Mg291   2.139       .  S
O289       Mg297   2.143       .  S
O289        C324   1.238       .  S
C290        O303   1.236       .  S
C290        O327   1.269       .  A
C290        H329   1.081       .  S
Mg291       O320   2.152       .  S
Mg291       O335   2.334       .  S
Mg291       O331   2.269       .  S
Mg291       O302   2.310       .  S
O292       Mg334   2.153       .  S
O292       Mg317   2.139       .  S
O292        C313   1.236       .  S
O293        C324   1.272       .  A
O293       Mg317   2.301       .  S
C294        O296   1.271       .  A
C294        O308   1.275       .  A
C294        C782   1.438       .  S
O295        C323   1.273       .  A
O295       Mg297   2.305       .  S
O296       Mg328   2.265       .  S
Mg297       O303   2.126       .  S
Mg297       O311   2.252       .  S
Mg297       O299   2.299       .  S
C298        O336   1.273       .  A
C298        O304   1.274       .  A
C298        C810   1.439       .  S
O299        C306   1.273       .  A
H300        C313   1.081       .  S
C301        O315   1.237       .  S
C301        O316   1.271       .  A
C301        H326   1.081       .  S
O302        C325   1.273       .  A
O303       Mg317   2.146       .  S
O304       Mg334   2.302       .  S
C305        O318   1.272       .  A
C305        O310   1.277       .  A
C305        C740   1.439       .  S
C306        O333   1.273       .  A
C306        C710   1.439       .  S
Mg307       O314   2.160       .  S
Mg307       O315   2.157       .  S
Mg307       O308   2.316       .  S
Mg307       O309   2.293       .  S
Mg307       O336   2.283       .  S
O309        C313   1.269       .  A
O310       Mg317   2.320       .  S
O311        C330   1.269       .  A
O312        C332   1.275       .  A
O312       Mg328   2.322       .  S
O314       Mg328   2.157       .  S
O314        C325   1.237       .  S
O315       Mg334   2.151       .  S
O316       Mg328   2.302       .  S
Mg317       O333   2.284       .  S
O318       Mg334   2.270       .  S
H319        C324   1.081       .  S
O320       Mg328   2.147       .  S
O320        C323   1.239       .  S
H321        C323   1.081       .  S
H322        C325   1.081       .  S
O327       Mg334   2.288       .  S
C330        O335   1.277       .  A
C330       C1018   1.440       .  S
O331        C332   1.271       .  A
C332        C724   1.441       .  S
O337       Mg339   2.141       .  S
O337       Mg345   2.144       .  S
O337        C372   1.238       .  S
C338        O351   1.236       .  S
C338        O375   1.269       .  A
C338        H377   1.081       .  S
Mg339       O368   2.153       .  S
Mg339       O383   2.322       .  S
Mg339       O379   2.265       .  S
Mg339       O350   2.306       .  S
O340       Mg382   2.155       .  S
O340       Mg365   2.146       .  S
O340        C361   1.236       .  S
O341        C372   1.272       .  A
O341       Mg365   2.300       .  S
C342        O344   1.271       .  A
C342        O356   1.275       .  A
C342        C850   1.439       .  S
O343        C371   1.273       .  A
O343       Mg345   2.305       .  S
O344       Mg376   2.266       .  S
Mg345       O351   2.126       .  S
Mg345       O359   2.251       .  S
Mg345       O347   2.307       .  S
C346        O384   1.272       .  A
C346        O352   1.275       .  A
C346        C766   1.439       .  S
O347        C354   1.274       .  A
H348        C361   1.081       .  S
C349        O363   1.237       .  S
C349        O364   1.271       .  A
C349        H374   1.081       .  S
O350        C373   1.272       .  A
O351       Mg365   2.147       .  S
O352       Mg382   2.309       .  S
C353        O366   1.273       .  A
C353        O358   1.277       .  A
C353        C726   1.440       .  S
C354        O381   1.274       .  A
C354        C698   1.443       .  S
Mg355       O362   2.152       .  S
Mg355       O363   2.157       .  S
Mg355       O356   2.317       .  S
Mg355       O357   2.295       .  S
Mg355       O384   2.275       .  S
O357        C361   1.270       .  A
O358       Mg365   2.321       .  S
O359        C378   1.269       .  A
O360        C380   1.274       .  A
O360       Mg376   2.316       .  S
O362       Mg376   2.155       .  S
O362        C373   1.237       .  S
O363       Mg382   2.155       .  S
O364       Mg376   2.303       .  S
Mg365       O381   2.293       .  S
O366       Mg382   2.275       .  S
H367        C372   1.081       .  S
O368       Mg376   2.147       .  S
O368        C371   1.238       .  S
H369        C371   1.081       .  S
H370        C373   1.081       .  S
O375       Mg382   2.289       .  S
C378        O383   1.275       .  A
C378        C964   1.437       .  S
O379        C380   1.271       .  A
C380        C738   1.439       .  S
O385       Mg387   2.137       .  S
O385       Mg393   2.144       .  S
O385        C420   1.238       .  S
C386        O399   1.236       .  S
C386        O423   1.269       .  A
C386        H425   1.081       .  S
Mg387       O416   2.153       .  S
Mg387       O431   2.332       .  S
Mg387       O427   2.270       .  S
Mg387       O398   2.309       .  S
O388       Mg430   2.154       .  S
O388       Mg413   2.145       .  S
O388        C409   1.236       .  S
O389        C420   1.271       .  A
O389       Mg413   2.298       .  S
C390        O392   1.271       .  A
C390        O404   1.276       .  A
C390        C682   1.442       .  S
O391        C419   1.273       .  A
O391       Mg393   2.303       .  S
O392       Mg424   2.270       .  S
Mg393       O399   2.127       .  S
Mg393       O407   2.253       .  S
Mg393       O395   2.301       .  S
C394        O432   1.273       .  A
C394        O400   1.275       .  A
C394        C668   1.440       .  S
O395        C402   1.273       .  A
H396        C409   1.081       .  S
C397        O411   1.237       .  S
C397        O412   1.271       .  A
C397        H422   1.081       .  S
O398        C421   1.273       .  A
O399       Mg413   2.148       .  S
O400       Mg430   2.309       .  S
C401        O414   1.273       .  A
C401        O406   1.276       .  A
C401        C654   1.440       .  S
C402        O429   1.273       .  A
C402        C712   1.439       .  S
Mg403       O410   2.155       .  S
Mg403       O411   2.158       .  S
Mg403       O404   2.325       .  S
Mg403       O405   2.296       .  S
Mg403       O432   2.280       .  S
O405        C409   1.270       .  A
O406       Mg413   2.315       .  S
O407        C426   1.269       .  A
O408        C428   1.274       .  A
O408       Mg424   2.314       .  S
O410       Mg424   2.154       .  S
O410        C421   1.238       .  S
O411       Mg430   2.156       .  S
O412       Mg424   2.303       .  S
Mg413       O429   2.285       .  S
O414       Mg430   2.277       .  S
H415        C420   1.081       .  S
O416       Mg424   2.148       .  S
O416        C419   1.238       .  S
H417        C419   1.081       .  S
H418        C421   1.081       .  S
O423       Mg430   2.290       .  S
C426        O431   1.277       .  A
C426        C950   1.439       .  S
O427        C428   1.271       .  A
C428        C640   1.439   1_554  S
O433       Mg435   2.137       .  S
O433       Mg441   2.144       .  S
O433        C468   1.238       .  S
C434        O447   1.237       .  S
C434        O471   1.270       .  A
C434        H473   1.081       .  S
Mg435       O464   2.153       .  S
Mg435       O479   2.326       .  S
Mg435       O475   2.268       .  S
Mg435       O446   2.307       .  S
O436       Mg478   2.153       .  S
O436       Mg461   2.145       .  S
O436        C457   1.236       .  S
O437        C468   1.271       .  A
O437       Mg461   2.298       .  S
C438        O440   1.271       .  A
C438        O452   1.276       .  A
C438        C626   1.440       .  S
O439        C467   1.273       .  A
O439       Mg441   2.305       .  S
O440       Mg472   2.264       .  S
Mg441       O447   2.128       .  S
Mg441       O455   2.252       .  S
Mg441       O443   2.305       .  S
C442        O480   1.274       .  A
C442        O448   1.274       .  A
C442        C612   1.440       .  S
O443        C450   1.274       .  A
H444        C457   1.081       .  S
C445        O459   1.237       .  S
C445        O460   1.271       .  A
C445        H470   1.081       .  S
O446        C469   1.272       .  A
O447       Mg461   2.149       .  S
O448       Mg478   2.306       .  S
C449        O462   1.273       .  A
C449        O454   1.277       .  A
C449        C642   1.439       .  S
C450        O477   1.274       .  A
C450        C696   1.443       .  S
Mg451       O458   2.156       .  S
Mg451       O459   2.158       .  S
Mg451       O452   2.325       .  S
Mg451       O453   2.296       .  S
Mg451       O480   2.285       .  S
O453        C457   1.270       .  A
O454       Mg461   2.319       .  S
O455        C474   1.269       .  A
O456        C476   1.275       .  A
O456       Mg472   2.317       .  S
O458       Mg472   2.156       .  S
O458        C469   1.237       .  S
O459       Mg478   2.154       .  S
O460       Mg472   2.302       .  S
Mg461       O477   2.293       .  S
O462       Mg478   2.274       .  S
H463        C468   1.081       .  S
O464       Mg472   2.148       .  S
O464        C467   1.239       .  S
H465        C467   1.081       .  S
H466        C469   1.081       .  S
O471       Mg478   2.290       .  S
C474        O479   1.276       .  A
C474       C1004   1.438       .  S
O475        C476   1.271       .  A
C476        C656   1.440       .  S
O481       Mg483   2.134       .  S
O481       Mg489   2.142       .  S
O481        C516   1.237       .  S
C482        O495   1.237       .  S
C482        O519   1.270       .  A
C482        H521   1.081       .  S
Mg483       O512   2.154       .  S
Mg483       O527   2.322       .  S
Mg483       O523   2.261       .  S
Mg483       O494   2.306       .  S
O484       Mg526   2.152       .  S
O484       Mg509   2.144       .  S
O484        C505   1.236       .  S
O485        C516   1.271       .  A
O485       Mg509   2.297       .  S
C486        O488   1.271       .  A
C486        O500   1.275       .  A
C486        C670   1.440       .  S
O487        C515   1.273       .  A
O487       Mg489   2.305       .  S
O488       Mg520   2.267       .  S
Mg489       O495   2.129       .  S
Mg489       O503   2.253       .  S
Mg489       O491   2.300       .  S
C490        O528   1.273       .  A
C490        O496   1.275       .  A
C490        C628   1.440       .  S
O491        C498   1.273       .  A
H492        C505   1.081       .  S
C493        O507   1.237       .  S
C493        O508   1.272       .  A
C493        H518   1.081       .  S
O494        C517   1.272       .  A
O495       Mg509   2.150       .  S
O496       Mg526   2.309       .  S
C497        O510   1.273       .  A
C497        O502   1.277       .  A
C497        C586   1.441       .  S
C498        O525   1.274       .  A
C498        C752   1.440       .  S
Mg499       O506   2.154       .  S
Mg499       O507   2.159       .  S
Mg499       O500   2.320       .  S
Mg499       O501   2.295       .  S
Mg499       O528   2.280       .  S
O501        C505   1.270       .  A
O502       Mg509   2.319       .  S
O503        C522   1.269       .  A
O504        C524   1.275       .  A
O504       Mg520   2.318       .  S
O506       Mg520   2.154       .  S
O506        C517   1.237       .  S
O507       Mg526   2.157       .  S
O508       Mg520   2.304       .  S
Mg509       O525   2.289       .  S
O510       Mg526   2.278       .  S
H511        C516   1.081       .  S
O512       Mg520   2.148       .  S
O512        C515   1.239       .  S
H513        C515   1.081       .  S
H514        C517   1.081       .  S
O519       Mg526   2.291       .  S
C522        O527   1.275       .  A
C522        C892   1.437       .  S
O523        C524   1.270       .  A
C524        C598   1.438       .  S
O529       Mg531   2.136       .  S
O529       Mg537   2.144       .  S
O529        C564   1.238       .  S
C530        O543   1.237       .  S
C530        O567   1.270       .  A
C530        H569   1.081       .  S
Mg531       O560   2.154       .  S
Mg531       O575   2.335       .  S
Mg531       O571   2.266       .  S
Mg531       O542   2.310       .  S
O532       Mg574   2.154       .  S
O532       Mg557   2.147       .  S
O532        C553   1.236       .  S
O533        C564   1.271       .  A
O533       Mg557   2.297       .  S
C534        O536   1.271       .  A
C534        O548   1.276       .  A
C534        C614   1.440       .  S
O535        C563   1.273       .  A
O535       Mg537   2.305       .  S
O536       Mg568   2.267       .  S
Mg537       O543   2.131       .  S
Mg537       O551   2.254       .  S
Mg537       O539   2.305       .  S
C538        O576   1.274       .  A
C538        O544   1.275       .  A
C538        C684   1.443       .  S
O539        C546   1.274       .  A
H540        C553   1.081       .  S
C541        O555   1.237       .  S
C541        O556   1.272       .  A
C541        H566   1.081       .  S
O542        C565   1.272       .  A
O543       Mg557   2.150       .  S
O544       Mg574   2.315       .  S
C545        O558   1.273   1_554  A
C545        O550   1.276   1_554  A
C545        C600   1.438       .  S
C546        O573   1.274       .  A
C546        C794   1.443       .  S
Mg547       O554   2.160       .  S
Mg547       O555   2.157       .  S
Mg547       O548   2.322       .  S
Mg547       O549   2.295       .  S
Mg547       O576   2.288       .  S
O549        C553   1.270       .  A
O550       Mg557   2.314       .  S
O551        C570   1.269       .  A
O552        C572   1.276       .  A
O552       Mg568   2.325       .  S
O554       Mg568   2.155       .  S
O554        C565   1.237       .  S
O555       Mg574   2.153       .  S
O556       Mg568   2.304       .  S
Mg557       O573   2.292       .  S
O558       Mg574   2.273       .  S
H559        C564   1.081       .  S
O560       Mg568   2.152       .  S
O560        C563   1.238       .  S
H561        C563   1.081       .  S
H562        C565   1.081       .  S
O567       Mg574   2.292       .  S
C570        O575   1.277       .  A
C570        C866   1.441       .  S
O571        C572   1.271       .  A
C572        C584   1.441       .  S
C577        C585   1.445       .  S
C577        C578   1.402       .  A
C577        C582   1.403       .  A
C578        H587   1.083       .  S
C578        C579   1.400       .  A
C579        H588   1.083       .  S
C579        C580   1.402       .  A
C580        C583   1.445       .  S
C580        C581   1.403       .  A
C581        H589   1.083       .  S
C581        C582   1.402       .  A
C582        H590   1.083       .  S
C583        C584   1.209       .  T
C585        C586   1.209       .  T
C591        C599   1.443       .  S
C591        C592   1.402       .  A
C591        C596   1.402       .  A
C592        H601   1.083       .  S
C592        C593   1.400       .  A
C593        H602   1.083       .  S
C593        C594   1.402       .  A
C594        C597   1.443       .  S
C594        C595   1.402       .  A
C595        H603   1.083       .  S
C595        C596   1.400       .  A
C596        H604   1.083       .  S
C597        C598   1.208       .  T
C599        C600   1.208       .  T
C605        C613   1.445       .  S
C605        C606   1.403       .  A
C605        C610   1.402   1_565  A
C606        H615   1.083       .  S
C606        C607   1.401       .  A
C607        H616   1.083       .  S
C607        C608   1.402   1_565  A
C608        C611   1.445       .  S
C608        C609   1.403       .  A
C609        H617   1.083       .  S
C609        C610   1.401       .  A
C610        H618   1.083       .  S
C611        C612   1.209       .  T
C613        C614   1.209       .  T
C619        C627   1.445       .  S
C619        C620   1.401       .  A
C619        C624   1.403       .  A
C620        H629   1.084       .  S
C620        C621   1.398   1_565  A
C621        H630   1.084       .  S
C621        C622   1.401       .  A
C622        C625   1.445       .  S
C622        C623   1.404       .  A
C623        H631   1.083       .  S
C623        C624   1.404   1_545  A
C624        H632   1.083       .  S
C625        C626   1.209       .  T
C627        C628   1.209       .  T
C633        C641   1.444       .  S
C633        C634   1.402       .  A
C633        C638   1.402       .  A
C634        H643   1.083       .  S
C634        C635   1.400       .  A
C635        H644   1.083       .  S
C635        C636   1.402       .  A
C636        C639   1.444       .  S
C636        C637   1.402       .  A
C637        H645   1.083       .  S
C637        C638   1.401       .  A
C638        H646   1.083       .  S
C639        C640   1.208       .  T
C641        C642   1.208       .  T
C647        C655   1.444       .  S
C647        C648   1.402       .  A
C647        C652   1.402       .  A
C648        H657   1.083       .  S
C648        C649   1.400       .  A
C649        H658   1.083       .  S
C649        C650   1.402       .  A
C650        C653   1.444       .  S
C650        C651   1.402       .  A
C651        H659   1.083       .  S
C651        C652   1.401       .  A
C652        H660   1.083       .  S
C653        C654   1.209       .  T
C655        C656   1.209       .  T
C661        C669   1.445       .  S
C661        C662   1.402       .  A
C661        C666   1.402       .  A
C662        H671   1.083   1_565  S
C662        C663   1.402   1_565  A
C663        H672   1.083       .  S
C663        C664   1.403       .  A
C664        C667   1.445       .  S
C664        C665   1.401   1_545  A
C665        H673   1.083       .  S
C665        C666   1.400       .  A
C666        H674   1.083       .  S
C667        C668   1.209       .  T
C669        C670   1.209       .  T
C675        C683   1.448       .  S
C675        C676   1.403       .  A
C675        C680   1.402   1_556  A
C676        H685   1.083       .  S
C676        C677   1.404   1_565  A
C677        H686   1.083       .  S
C677        C678   1.404   1_556  A
C678        C681   1.447       .  S
C678        C679   1.401       .  A
C679        H687   1.083       .  S
C679        C680   1.400   1_545  A
C680        H688   1.083       .  S
C681        C682   1.210       .  T
C683        C684   1.211       .  T
C689        C697   1.448       .  S
C689        C690   1.402       .  A
C689        C694   1.403       .  A
C690        H699   1.083       .  S
C690        C691   1.402       .  A
C691        H700   1.083       .  S
C691        C692   1.404       .  A
C692        C695   1.448       .  S
C692        C693   1.402       .  A
C693        H701   1.083       .  S
C693        C694   1.402       .  A
C694        H702   1.083       .  S
C695        C696   1.211       .  T
C697        C698   1.211       .  T
C703        C711   1.444       .  S
C703        C704   1.402       .  A
C703        C708   1.402       .  A
C704        H713   1.083       .  S
C704        C705   1.400       .  A
C705        H714   1.083       .  S
C705        C706   1.402       .  A
C706        C709   1.444       .  S
C706        C707   1.402       .  A
C707        H715   1.083       .  S
C707        C708   1.401       .  A
C708        H716   1.083       .  S
C709        C710   1.208       .  T
C711        C712   1.208       .  T
C717        C725   1.445       .  S
C717        C718   1.402       .  A
C717        C722   1.402       .  A
C718        H727   1.083       .  S
C718        C719   1.401       .  A
C719        H728   1.083       .  S
C719        C720   1.403       .  A
C720        C723   1.445       .  S
C720        C721   1.402       .  A
C721        H729   1.083       .  S
C721        C722   1.401       .  A
C722        H730   1.083       .  S
C723        C724   1.209       .  T
C725        C726   1.209       .  T
C731        C739   1.443       .  S
C731        C732   1.402       .  A
C731        C736   1.402       .  A
C732        H741   1.083       .  S
C732        C733   1.401       .  A
C733        H742   1.083       .  S
C733        C734   1.402       .  A
C734        C737   1.443   1_554  S
C734        C735   1.402       .  A
C735        H743   1.083       .  S
C735        C736   1.400       .  A
C736        H744   1.083       .  S
C737        C738   1.208       .  T
C739        C740   1.208       .  T
C745        C753   1.445       .  S
C745        C746   1.403       .  A
C745        C750   1.402       .  A
C746        H755   1.083       .  S
C746        C747   1.401       .  A
C747        H756   1.083       .  S
C747        C748   1.402       .  A
C748        C751   1.445       .  S
C748        C749   1.403       .  A
C749        H757   1.083       .  S
C749        C750   1.401       .  A
C750        H758   1.083       .  S
C751        C752   1.209       .  T
C753        C754   1.209       .  T
C759        C767   1.443       .  S
C759        C760   1.403       .  A
C759        C764   1.401       .  A
C760        H769   1.083       .  S
C760        C761   1.401       .  A
C761        H770   1.083       .  S
C761        C762   1.402   1_455  A
C762        C765   1.443       .  S
C762        C763   1.402       .  A
C763        H771   1.083       .  S
C763        C764   1.400   1_655  A
C764        H772   1.083   1_455  S
C765        C766   1.208       .  T
C767        C768   1.208       .  T
C773        C781   1.443       .  S
C773        C774   1.402       .  A
C773        C778   1.402       .  A
C774        H783   1.084       .  S
C774        C775   1.399       .  A
C775        H784   1.083       .  S
C775        C776   1.401   1_655  A
C776        C779   1.443       .  S
C776        C777   1.403       .  A
C777        H785   1.083       .  S
C777        C778   1.402   1_455  A
C778        H786   1.083   1_655  S
C779        C780   1.208       .  T
C781        C782   1.208       .  T
C787        C795   1.447       .  S
C787        C788   1.402       .  A
C787        C792   1.403       .  A
C788        H797   1.083       .  S
C788        C789   1.403       .  A
C789        H798   1.083       .  S
C789        C790   1.403       .  A
C790        C793   1.447       .  S
C790        C791   1.402       .  A
C791        H799   1.083       .  S
C791        C792   1.401       .  A
C792        H800   1.083       .  S
C793        C794   1.210       .  T
C795        C796   1.210       .  T
C801        C809   1.444       .  S
C801        C802   1.403       .  A
C801        C806   1.401   1_655  A
C802        H811   1.083       .  S
C802        C803   1.402   1_655  A
C803        H812   1.083       .  S
C803        C804   1.402       .  A
C804        C807   1.444       .  S
C804        C805   1.402       .  A
C805        H813   1.084       .  S
C805        C806   1.399       .  A
C806        H814   1.083       .  S
C807        C808   1.208       .  T
C809        C810   1.208       .  T
C815        C823   1.444       .  S
C815        C816   1.402       .  A
C815        C820   1.402       .  A
C816        H825   1.083       .  S
C816        C817   1.400       .  A
C817        H826   1.083       .  S
C817        C818   1.401       .  A
C818        C821   1.443       .  S
C818        C819   1.402       .  A
C819        H827   1.083       .  S
C819        C820   1.401       .  A
C820        H828   1.083       .  S
C821        C822   1.208       .  T
C823        C824   1.208       .  T
C829        C837   1.444       .  S
C829        C830   1.402       .  A
C829        C834   1.402       .  A
C830        H839   1.083       .  S
C830        C831   1.401       .  A
C831        H840   1.083       .  S
C831        C832   1.402       .  A
C832        C835   1.444       .  S
C832        C833   1.402       .  A
C833        H841   1.083       .  S
C833        C834   1.400       .  A
C834        H842   1.083       .  S
C835        C836   1.208       .  T
C837        C838   1.208       .  T
C843        C851   1.443       .  S
C843        C844   1.402       .  A
C843        C848   1.402       .  A
C844        H853   1.084       .  S
C844        C845   1.399   1_455  A
C845        H854   1.084       .  S
C845        C846   1.401       .  A
C846        C849   1.444       .  S
C846        C847   1.403       .  A
C847        H855   1.083       .  S
C847        C848   1.402   1_655  A
C848        H856   1.083       .  S
C849        C850   1.208       .  T
C851        C852   1.208       .  T
C857        C865   1.446       .  S
C857        C858   1.401       .  A
C857        C862   1.403       .  A
C858        H867   1.083       .  S
C858        C859   1.401       .  A
C859        H868   1.083       .  S
C859        C860   1.402       .  A
C860        C863   1.446       .  S
C860        C861   1.402       .  A
C861        H869   1.083       .  S
C861        C862   1.402       .  A
C862        H870   1.083       .  S
C863        C864   1.210       .  T
C865        C866   1.209       .  T
C871        C879   1.442       .  S
C871        C872   1.402       .  A
C871        C876   1.402       .  A
C872        H881   1.083       .  S
C872        C873   1.400       .  A
C873        H882   1.083       .  S
C873        C874   1.402       .  A
C874        C877   1.443       .  S
C874        C875   1.402       .  A
C875        H883   1.083       .  S
C875        C876   1.400       .  A
C876        H884   1.083       .  S
C877        C878   1.208       .  T
C879        C880   1.207       .  T
C885        C893   1.442       .  S
C885        C886   1.401       .  A
C885        C890   1.402       .  A
C886        H895   1.083       .  S
C886        C887   1.399       .  A
C887        H896   1.083       .  S
C887        C888   1.402       .  A
C888        C891   1.442       .  S
C888        C889   1.402       .  A
C889        H897   1.083       .  S
C889        C890   1.401       .  A
C890        H898   1.083       .  S
C891        C892   1.207       .  T
C893        C894   1.207       .  T
C899        C907   1.441       .  S
C899        C900   1.402       .  A
C899        C904   1.401       .  A
C900        H909   1.084       .  S
C900        C901   1.398       .  A
C901        H910   1.083       .  S
C901        C902   1.400       .  A
C902        C905   1.441       .  S
C902        C903   1.403       .  A
C903        H911   1.083       .  S
C903        C904   1.401       .  A
C904        H912   1.083       .  S
C905        C906   1.207       .  T
C907        C908   1.206       .  T
C913        C921   1.443       .  S
C913        C914   1.402       .  A
C913        C918   1.402       .  A
C914        H923   1.083       .  S
C914        C915   1.401       .  A
C915        H924   1.083       .  S
C915        C916   1.402       .  A
C916        C919   1.443   1_556  S
C916        C917   1.402       .  A
C917        H925   1.083       .  S
C917        C918   1.400       .  A
C918        H926   1.083       .  S
C919        C920   1.208       .  T
C921        C922   1.208       .  T
C927        C935   1.444       .  S
C927        C928   1.402       .  A
C927        C932   1.402       .  A
C928        H937   1.083       .  S
C928        C929   1.401       .  A
C929        H938   1.083       .  S
C929        C930   1.402       .  A
C930        C933   1.444       .  S
C930        C931   1.402       .  A
C931        H939   1.083       .  S
C931        C932   1.400       .  A
C932        H940   1.083       .  S
C933        C934   1.208       .  T
C935        C936   1.208       .  T
C941        C949   1.444       .  S
C941        C942   1.402       .  A
C941        C946   1.402       .  A
C942        H951   1.083       .  S
C942        C943   1.401       .  A
C943        H952   1.083       .  S
C943        C944   1.402       .  A
C944        C947   1.444       .  S
C944        C945   1.402       .  A
C945        H953   1.083       .  S
C945        C946   1.401       .  A
C946        H954   1.083       .  S
C947        C948   1.209       .  T
C949        C950   1.209       .  T
C955        C963   1.442       .  S
C955        C956   1.402       .  A
C955        C960   1.402       .  A
C956        H965   1.084       .  S
C956        C957   1.399       .  A
C957        H966   1.083       .  S
C957        C958   1.401       .  A
C958        C961   1.442       .  S
C958        C959   1.403       .  A
C959        H967   1.083       .  S
C959        C960   1.401       .  A
C960        H968   1.083       .  S
C961        C962   1.207       .  T
C963        C964   1.207       .  T
C969        C977   1.445       .  S
C969        C970   1.402       .  A
C969        C974   1.402       .  A
C970        H979   1.084       .  S
C970        C971   1.400       .  A
C971        H980   1.083       .  S
C971        C972   1.402       .  A
C972        C975   1.445       .  S
C972        C973   1.403       .  A
C973        H981   1.083       .  S
C973        C974   1.402       .  A
C974        H982   1.083       .  S
C975        C976   1.209       .  T
C977        C978   1.209       .  T
C983        C991   1.444       .  S
C983        C984   1.402       .  A
C983        C988   1.402       .  A
C984        H993   1.084       .  S
C984        C985   1.399       .  A
C985        H994   1.083       .  S
C985        C986   1.401       .  A
C986        C989   1.444       .  S
C986        C987   1.403       .  A
C987        H995   1.083       .  S
C987        C988   1.402       .  A
C988        H996   1.083       .  S
C989        C990   1.209       .  T
C991        C992   1.208       .  T
C997       C1005   1.443       .  S
C997        C998   1.401       .  A
C997       C1002   1.402       .  A
C998       H1007   1.083       .  S
C998        C999   1.400       .  A
C999       H1008   1.083       .  S
C999       C1000   1.403       .  A
C1000      C1003   1.443       .  S
C1000      C1001   1.401       .  A
C1001      H1009   1.083       .  S
C1001      C1002   1.400       .  A
C1002      H1010   1.083       .  S
C1003      C1004   1.208       .  T
C1005      C1006   1.208       .  T
C1011      C1019   1.446       .  S
C1011      C1012   1.403       .  A
C1011      C1016   1.402       .  A
C1012      H1021   1.083       .  S
C1012      C1013   1.402       .  A
C1013      H1022   1.083       .  S
C1013      C1014   1.402       .  A
C1014      C1017   1.445       .  S
C1014      C1015   1.403       .  A
C1015      H1023   1.083       .  S
C1015      C1016   1.401       .  A
C1016      H1024   1.083       .  S
C1017      C1018   1.209       .  T
C1019      C1020   1.210       .  T
C1025      C1033   1.444       .  S
C1025      C1026   1.402       .  A
C1025      C1030   1.402       .  A
C1026      H1035   1.083       .  S
C1026      C1027   1.400       .  A
C1027      H1036   1.083       .  S
C1027      C1028   1.402       .  A
C1028      C1031   1.444       .  S
C1028      C1029   1.403       .  A
C1029      H1037   1.083       .  S
C1029      C1030   1.401       .  A
C1030      H1038   1.083       .  S
C1031      C1032   1.209       .  T
C1033      C1034   1.208       .  T
C1039      C1047   1.443       .  S
C1039      C1040   1.402       .  A
C1039      C1044   1.402       .  A
C1040      H1049   1.083       .  S
C1040      C1041   1.400       .  A
C1041      H1050   1.083       .  S
C1041      C1042   1.402       .  A
C1042      C1045   1.443       .  S
C1042      C1043   1.402       .  A
C1043      H1051   1.083       .  S
C1043      C1044   1.400       .  A
C1044      H1052   1.083       .  S
C1045      C1046   1.208       .  T
C1047      C1048   1.208       .  T
C1053      C1061   1.445       .  S
C1053      C1054   1.402       .  A
C1053      C1058   1.403       .  A
C1054      H1063   1.084       .  S
C1054      C1055   1.399       .  A
C1055      H1064   1.084       .  S
C1055      C1056   1.401       .  A
C1056      C1059   1.444       .  S
C1056      C1057   1.403       .  A
C1057      H1065   1.083       .  S
C1057      C1058   1.403       .  A
C1058      H1066   1.083       .  S
C1059      C1060   1.208       .  T
C1061      C1062   1.209       .  T
C1067      C1075   1.445       .  S
C1067      C1068   1.403       .  A
C1067      C1072   1.401       .  A
C1068      H1077   1.083       .  S
C1068      C1069   1.401       .  A
C1069      H1078   1.083       .  S
C1069      C1070   1.402       .  A
C1070      C1073   1.445       .  S
C1070      C1071   1.402       .  A
C1071      H1079   1.083       .  S
C1071      C1072   1.400       .  A
C1072      H1080   1.083       .  S
C1073      C1074   1.209       .  T
C1075      C1076   1.209       .  T
