geometry optimzed in LAMMPS
_audit_creation_date              2020-11-30 
_audit_creation_method            'lammps2cif' 
_symmetry_space_group_name_H-M    'P1' 
_symmetry_Int_Tables_number       1 
_symmetry_cell_setting            triclinic 
loop_ 
_symmetry_equiv_pos_as_xyz 
  x,y,z 
_cell_length_a                    33.34481848 
_cell_length_b                    33.538062430785715 
_cell_length_c                    39.45465555714146 
_cell_angle_alpha                 90.13555639862571 
_cell_angle_beta                  89.72705433251124 
_cell_angle_gamma                 119.76169718470868 
loop_ 
_atom_site_label 
_atom_site_type_symbol 
_atom_site_fract_x 
_atom_site_fract_y 
_atom_site_fract_z 
_atom_site_charge 
Zn1        Zn  0.39899511  0.20021169  0.89216793     1.49700
Zn2        Zn  0.30014679  0.19786524  0.89888696     1.49400
Zn3        Zn  0.30322985  0.10272741  0.89406912     1.49100
Zn4        Zn  0.33791010  0.16507190  0.95801360     1.49500
O5          O  0.33520979  0.16661246  0.90962926    -1.83600
O6          O  0.40712998  0.25593302  0.86539642    -0.74300
O7          O  0.24151451  0.15493952  0.87380693    -0.74100
O8          O  0.34661754  0.09026731  0.86535795    -0.73600
O9          O  0.33975258  0.25437010  0.87081041    -0.74300
O10         O  0.41298598  0.15618852  0.86466496    -0.73900
O11         O  0.24557278  0.09094162  0.86883814    -0.74500
O12         O  0.30747723  0.10436568  0.97684912    -0.73800
O13         O  0.28162060  0.21994654  0.94118126    -0.74600
O14         O  0.28180783  0.05663865  0.93324132    -0.74000
O15         O  0.31043575  0.19626060  0.98154050    -0.74500
O16         O  0.39959078  0.19378142  0.97483331    -0.74400
O17         O  0.44624512  0.22540929  0.93092075    -0.74200
C18         C  0.38131129  0.27353569  0.86012567     0.77600
C19         C  0.22455529  0.11355882  0.86380050     0.78100
C20         C  0.38921012  0.11346381  0.85716239     0.77100
C21         C  0.28654058  0.06423021  0.96500034     0.77500
C22         C  0.28907557  0.21657509  0.97236191     0.78600
C23         C  0.43955660  0.21785730  0.96265979     0.77600
Zn24       Zn  0.33372743  0.16497062  0.67949590     1.49700
Zn25       Zn  0.36305538  0.22790782  0.61170929     1.49400
Zn26       Zn  0.36883885  0.13586734  0.61271277     1.49100
Zn27       Zn  0.27235949  0.13042033  0.61144967     1.49500
O28         O  0.33470814  0.16503393  0.62960079    -1.83600
O29         O  0.36488617  0.23301814  0.69630763    -0.74300
O30         O  0.41941517  0.24379384  0.58379134    -0.74100
O31         O  0.39116426  0.11191123  0.65046494    -0.73600
O32         O  0.37970907  0.27420938  0.64902545    -0.74300
O33         O  0.36787398  0.13092287  0.69769833    -0.73900
O34         O  0.42177188  0.17922280  0.58453384    -0.74500
O35         O  0.26333210  0.07870037  0.58178958    -0.73800
O36         O  0.32226240  0.23528317  0.57823612    -0.74600
O37         O  0.33277799  0.08597806  0.57909924    -0.74000
O38         O  0.25864885  0.16748975  0.57923748    -0.74500
O39         O  0.22501501  0.10724169  0.64786585    -0.74400
O40         O  0.26543389  0.13070204  0.69560927    -0.74200
C41         C  0.37969277  0.27176762  0.68118838     0.77600
C42         C  0.43719698  0.21985720  0.57391323     0.78100
C43         C  0.38839821  0.11196906  0.68268098     0.77100
C44         C  0.29141631  0.06794632  0.56870288     0.77500
C45         C  0.28198554  0.20773003  0.56734934     0.78600
C46         C  0.22674488  0.11003244  0.68000659     0.77600
C47         C  0.99960995  0.99420978  0.73869727     0.46000
H48         H  0.99608727  0.99013856  0.71104015    -0.03100
C49         C  0.00414278  0.00141168  0.80429176     0.46000
H50         H  0.00400286  0.50519334  0.83078401    -0.03100
C51         C  0.05009467  0.01818681  0.75201214    -0.16800
C52         C  0.47933159  0.02404676  0.75285370    -0.16500
C53         C  0.47296360  0.44597051  0.75649646    -0.16900
C54         C  0.05218514  0.02012104  0.78713548    -0.16900
C55         C  0.48238341  0.02778646  0.78762075    -0.16400
C56         C  0.47378673  0.45013454  0.79148265    -0.16700
Zn57       Zn  0.17338910  0.33352367  0.45542372     1.49700
Zn58       Zn  0.10448788  0.30368796  0.39310974     1.49400
Zn59       Zn  0.20210061  0.39745633  0.39163313     1.49100
Zn60       Zn  0.19979177  0.29968720  0.38959814     1.49500
O61         O  0.16965187  0.33341494  0.40666756    -1.83600
O62         O  0.11300898  0.30888179  0.47696468    -0.74300
O63         O  0.09179090  0.34824106  0.36634153    -0.74100
O64         O  0.22941591  0.44193068  0.43118789    -0.73600
O65         O  0.06245539  0.28434533  0.43473112    -0.74300
O66         O  0.21273954  0.39461217  0.47471382    -0.73900
O67         O  0.15931680  0.41320277  0.36575861    -0.74500
O68         O  0.25586254  0.34199860  0.36177377    -0.73800
O69         O  0.08816738  0.24601227  0.36557924    -0.74600
O70         O  0.25601091  0.40833011  0.36255459    -0.74000
O71         O  0.15424814  0.24491542  0.36232547    -0.74500
O72         O  0.22209634  0.27411787  0.42740819    -0.74400
O73         O  0.19806879  0.29571038  0.47255284    -0.74200
C74         C  0.07194517  0.28961196  0.46624603     0.77600
C75         C  0.11665328  0.39043569  0.35802781     0.78100
C76         C  0.23196550  0.43475370  0.46258773     0.77100
C77         C  0.27411899  0.38420632  0.35364882     0.77500
C78         C  0.11129822  0.22708998  0.35574074     0.78600
C79         C  0.21728900  0.27509324  0.45935645     0.77600
Zn80       Zn  0.19929550  0.30458335  0.14928949     1.49700
Zn81       Zn  0.19870535  0.40087812  0.14404878     1.49400
Zn82       Zn  0.16990685  0.33430674  0.08277135     1.49100
Zn83       Zn  0.10185722  0.30353800  0.14442918     1.49500
O84         O  0.16726581  0.33567200  0.13124011    -1.83600
O85         O  0.25391914  0.35006031  0.17796205    -0.74300
O86         O  0.22058064  0.44391862  0.10336392    -0.74100
O87         O  0.20060775  0.30271294  0.06623949    -0.73600
O88         O  0.25490269  0.41658131  0.17222654    -0.74300
O89         O  0.22675009  0.28366706  0.11119755    -0.73900
O90         O  0.20273005  0.39382300  0.06177192    -0.74500
O91         O  0.05951689  0.28391532  0.10283992    -0.73800
O92         O  0.15528439  0.41441741  0.17014432    -0.74600
O93         O  0.11058304  0.30645444  0.06098744    -0.74000
O94         O  0.08925136  0.34784196  0.17144613    -0.74500
O95         O  0.08624283  0.24514245  0.17132578    -0.74400
O96         O  0.15332214  0.24667097  0.17505687    -0.74200
C97         C  0.27265974  0.39328306  0.18343924     0.77600
C98         C  0.21988221  0.43461376  0.07203247     0.78100
C99         C  0.22305891  0.28549679  0.07918548     0.77100
C100        C  0.06941801  0.28794138  0.07132024     0.77500
C101        C  0.11300391  0.39059655  0.17861920     0.78600
C102        C  0.10978570  0.22659717  0.18082948     0.78200
C103        C  0.00092389  0.00090153  0.23594353     0.46000
H104        H  0.00359486  0.00222791  0.20810167    -0.03100
C105        C  0.99786335  0.00199738  0.30175370     0.46000
H106        H  0.99580868  0.00275067  0.32938862    -0.03100
C107        C  0.45266121  0.47971099  0.24993892    -0.16800
C108        C  0.02186225  0.47238126  0.25375409    -0.16500
C109        C  0.02859928  0.04954875  0.25127604    -0.16900
C110        C  0.45148983  0.48043095  0.28495756    -0.16900
C111        C  0.02211885  0.47429240  0.28883016    -0.16400
C112        C  0.02729121  0.05027074  0.28612522    -0.16700
C113        C  0.11596298  0.16582375  0.21298184    -0.05300
C114        C  0.08690717  0.18026411  0.19820747     0.00700
C115        C  0.03821576  0.14887850  0.19871041    -0.07900
C116        C  0.02130040  0.10549677  0.21441541    -0.05300
C117        C  0.05061868  0.09221657  0.22988478     0.00600
C118        C  0.09898648  0.12228706  0.22792862    -0.07800
C119        C  0.13460294  0.11022491  0.24018983     0.62500
H120        H  0.15305288  0.18862880  0.21245203     0.13200
H121        H  0.48435657  0.08173505  0.21572974     0.13300
C122        C  0.00368724  0.16018305  0.18281412     0.62800
F123        F  0.15823160  0.13804028  0.26734032    -0.22400
F124        F  0.16574256  0.11772525  0.21431346    -0.19700
F125        F  0.11545088  0.06495650  0.24980135    -0.19400
F126        F  0.01391455  0.16979134  0.14883232    -0.19400
F127        F  0.00529242  0.19754613  0.19903754    -0.19800
F128        F  0.45889871  0.12373448  0.18455217    -0.22400
C129        C  0.35091541  0.40481156  0.19026498    -0.05300
C130        C  0.31854368  0.41748859  0.20029611     0.00700
C131        C  0.33193171  0.45394415  0.22373662    -0.07900
C132        C  0.37730234  0.47557758  0.23674656    -0.05300
C133        C  0.40936431  0.46121109  0.22829773     0.00600
C134        C  0.39617914  0.42618550  0.20313726    -0.07800
C135        C  0.42823695  0.41013490  0.18938084     0.62500
H136        H  0.34043080  0.37816574  0.17127453     0.13200
H137        H  0.38774649  0.50332263  0.25466210     0.13300
C138        C  0.29817988  0.46885067  0.23610791     0.62800
F139        F  0.40569454  0.37185261  0.16874418    -0.22400
F140        F  0.44643358  0.39806559  0.21571242    -0.19700
F141        F  0.46297971  0.44439183  0.17030297    -0.19400
F142        F  0.25767664  0.43097471  0.24696712    -0.19400
F143        F  0.28849010  0.49036346  0.21016406    -0.19800
F144        F  0.31584367  0.49930200  0.26297712    -0.22400
C145        C  0.05666157  0.38584485  0.22116528    -0.05300
C146        C  0.09049554  0.41269085  0.19731132     0.00700
C147        C  0.09939432  0.45801891  0.19060404    -0.07900
C148        C  0.07444797  0.47474824  0.20871512    -0.05300
C149        C  0.04149708  0.44835457  0.23335409     0.00600
C150        C  0.03106160  0.40207611  0.23874232    -0.07800
C151        C  0.49251799  0.36700832  0.26089540     0.62500
H152        H  0.04939662  0.35100435  0.22579867     0.13200
H153        H  0.07892007  0.00790898  0.20348468     0.13300
C154        C  0.13378315  0.48841731  0.16383268     0.62800
F155        F  0.46445997  0.32864955  0.24161194    -0.22400
F156        F  0.46493056  0.38266998  0.27461190    -0.19700
F157        F  0.51109549  0.35374438  0.28683250    -0.19400
F158        F  0.12316769  0.46518643  0.13336104    -0.19400
F159        F  0.17811960  0.50008852  0.17339877    -0.19800
F160        F  0.12877321  0.02569778  0.15731977    -0.22400
C161        C  0.34901126  0.45385888  0.34288423    -0.05300
C162        C  0.31904668  0.40727383  0.33541772     0.00700
C163        C  0.33295574  0.38489126  0.31147248    -0.07900
C164        C  0.37720226  0.40980035  0.29694696    -0.05300
C165        C  0.40721706  0.45640850  0.30448192     0.00600
C166        C  0.39255787  0.47920043  0.32742342    -0.07800
C167        C  0.41970969  0.03157765  0.33393919     0.62500
H168        H  0.33798503  0.47053228  0.36122052     0.13200
H169        H  0.38873764  0.39312399  0.27900977     0.13300
C170        C  0.30107263  0.33573286  0.30012615     0.62800
F171        F  0.39560716  0.04772061  0.35279914    -0.22400
F172        F  0.43191259  0.05519712  0.30362372    -0.19700
F173        F  0.45894708  0.04114277  0.35180904    -0.19400
F174        F  0.25866538  0.33034663  0.29092378    -0.19400
F175        F  0.29513685  0.30569049  0.32612466    -0.19800
F176        F  0.31873657  0.32407483  0.27238733    -0.22400
C177        C  0.10222659  0.15013847  0.34626379    -0.05300
C178        C  0.08788061  0.18186089  0.33803818     0.00700
C179        C  0.05242916  0.16943394  0.31378522    -0.07900
C180        C  0.03301980  0.12574626  0.29858908    -0.05300
C181        C  0.04779686  0.09412644  0.30631142     0.00600
C182        C  0.08278047  0.10634499  0.33116437    -0.07800
C183        C  0.10069948  0.07451855  0.34182545     0.62500
H184        H  0.12877576  0.15991622  0.36524906     0.13200
H185        H  0.50611301  0.11607618  0.27984115     0.13300
C186        C  0.03589857  0.20230581  0.30303691     0.62800
F187        F  0.13775276  0.09573197  0.36377997    -0.22400
F188        F  0.11545785  0.06063730  0.31392528    -0.19700
F189        F  0.06648856  0.03664959  0.35833622    -0.19400
F190        F  0.07323135  0.24386399  0.29334099    -0.19400
F191        F  0.01292435  0.20921823  0.32965381    -0.19800
F192        F  0.50644078  0.18583679  0.27525671    -0.22400
C193        C  0.05262065  0.40747808  0.35430723    -0.05300
C194        C  0.09451528  0.41408184  0.34091562     0.00700
C195        C  0.11403807  0.44321686  0.31252697    -0.07900
C196        C  0.09130529  0.46559547  0.29927162    -0.05300
C197        C  0.04731670  0.45643128  0.31068937     0.00600
C198        C  0.02819982  0.42762528  0.33983089    -0.07800
C199        C  0.48252632  0.41710648  0.35613649     0.62500
H200        H  0.03909962  0.38609764  0.37662678     0.13200
H201        H  0.10714216  0.48925829  0.27847050     0.13300
C202        C  0.15655742  0.44791999  0.29445770     0.62800
F203        F  0.46692512  0.38076559  0.37868418    -0.22400
F204        F  0.44873470  0.40500356  0.33215424    -0.19700
F205        F  0.48781558  0.45474767  0.37410809    -0.19400
F206        F  0.14931467  0.40477768  0.28599268    -0.19400
F207        F  0.19484379  0.46978069  0.31509164    -0.19800
F208        F  0.16602168  0.47313385  0.26481323    -0.22400
C209        C  0.23609369  0.50310461  0.48799493    -0.05300
C210        C  0.25393033  0.47325731  0.48648573     0.00700
C211        C  0.28713896  0.47706486  0.51048208    -0.07900
C212        C  0.29856308  0.00959342  0.53483074    -0.05300
C213        C  0.27675511  0.03587773  0.53957448     0.00600
C214        C  0.24486671  0.03399996  0.51478722    -0.07800
C215        C  0.22300060  0.06445506  0.51619996     0.62500
H216        H  0.21080920  0.49935013  0.46925277     0.13200
H217        H  0.32381877  0.01219345  0.55316893     0.13300
C218        C  0.31068882  0.44825916  0.50776975     0.62800
F219        F  0.19843924  0.06088034  0.48705641    -0.22400
F220        F  0.25696718  0.10996401  0.51950846    -0.19700
F221        F  0.19260385  0.05176572  0.54326542    -0.19400
F222        F  0.32987139  0.45339423  0.47580141    -0.19400
F223        F  0.27923718  0.40242532  0.51328913    -0.19800
F224        F  0.34573686  0.46148378  0.53129808    -0.22400
C225        C  0.03187092  0.23504698  0.51174665    -0.05300
C226        C  0.03540678  0.27116784  0.49193519     0.00700
C227        C  0.00970906  0.29275580  0.50037108    -0.07900
C228        C  0.47747571  0.27467175  0.52710003    -0.05300
C229        C  0.47363843  0.23823117  0.54729238     0.00600
C230        C  0.50194319  0.21854313  0.53968522    -0.07800
C231        C  0.50176339  0.18045809  0.56076490     0.62500
H232        H  0.05336192  0.22032693  0.50509887     0.13200
H233        H  0.45597065  0.28960574  0.53287862     0.13300
C234        C  0.01638618  0.33478231  0.48114482     0.62800
F235        F  0.53764577  0.17284620  0.55190487    -0.22400
F236        F  0.46091149  0.13971868  0.55583044    -0.19700
F237        F  0.50676084  0.19221877  0.59474253    -0.19400
F238        F  0.00621569  0.32407139  0.44726771    -0.19400
F239        F  0.06180169  0.36955912  0.48409096    -0.19800
F240        F  0.98819600  0.35095780  0.49351570    -0.22400
C241        C  0.29482867  0.24932248  0.51332866    -0.05300
C242        C  0.26345736  0.22189024  0.53870844     0.00700
C243        C  0.21598044  0.20819000  0.53558157    -0.07900
C244        C  0.20204901  0.22383040  0.50751210    -0.05300
C245        C  0.23363546  0.25236360  0.48283130     0.00600
C246        C  0.28070294  0.26500728  0.48530699    -0.07800
C247        C  0.31599741  0.29653763  0.45940486     0.62500
H248        H  0.33080985  0.25873830  0.51576947     0.13200
H249        H  0.16623200  0.21504963  0.50504972     0.13300
C250        C  0.18032967  0.17903271  0.56222900     0.62800
F251        F  0.36018139  0.30551468  0.46712230    -0.22400
F252        F  0.31639979  0.33796819  0.45836097    -0.19700
F253        F  0.30477263  0.27625030  0.42773557    -0.19400
F254        F  0.19526289  0.19806094  0.59401358    -0.19400
F255        F  0.17353085  0.13487275  0.56171942    -0.19800
F256        F  0.13802479  0.17615905  0.55654064    -0.22400
C257        C  0.41084233  0.03418496  0.74170705    -0.05300
C258        C  0.45582805  0.04462046  0.73196230     0.00700
C259        C  0.47806378  0.07764688  0.70565374    -0.07900
C260        C  0.45458638  0.09859698  0.69085452    -0.05300
C261        C  0.41088118  0.08986928  0.70199744     0.00600
C262        C  0.38881553  0.05747983  0.72833530    -0.07800
C263        C  0.34216142  0.04729387  0.74218428     0.62500
H264        H  0.39329486  0.00806429  0.76085946     0.13200
H265        H  0.47072138  0.12298684  0.67035900     0.13300
C266        C  0.52671362  0.09250392  0.69339492     0.62800
F267        F  0.32578741  0.01321470  0.76664911    -0.22400
F268        F  0.31023572  0.03298523  0.71623306    -0.19700
F269        F  0.34599170  0.08649175  0.75691297    -0.19400
F270        F  0.54007661  0.62534546  0.66809564    -0.19400
F271        F  0.02771427  0.05613726  0.67744350    -0.19800
F272        F  0.55663901  0.10724447  0.72034690    -0.22400
C273        C  0.14660510  0.04567040  0.68625180    -0.05300
C274        C  0.18195311  0.08783376  0.69869619     0.00700
C275        C  0.17216869  0.10890343  0.72608636    -0.07900
C276        C  0.12737348  0.08664166  0.74005951    -0.05300
C277        C  0.09285683  0.04235584  0.72982566     0.00600
C278        C  0.10244253  0.02190587  0.70145071    -0.07800
C279        C  0.06776387  0.97559599  0.68645907     0.62500
H280        H  0.15421123  0.03091770  0.66441304     0.13200
H281        H  0.11944904  0.10332323  0.76032292     0.13300
C282        C  0.20857026  0.15464612  0.74060900     0.62800
F283        F  0.08940358  0.95751807  0.66678367    -0.22400
F284        F  0.03707661  0.98056604  0.66597425    -0.19700
F285        F  0.04339816  0.44337249  0.70996286    -0.19400
F286        F  0.22693113  0.18725672  0.71515936    -0.19400
F287        F  0.24339685  0.14961753  0.75526297    -0.19800
F288        F  0.19057696  0.17075028  0.76533760    -0.22400
C289        C  0.41736562  0.39425435  0.71258896    -0.05300
C290        C  0.44991137  0.40033196  0.73758626     0.00700
C291        C  0.45801808  0.36269318  0.74371934    -0.07900
C292        C  0.43187091  0.32101534  0.72630161    -0.05300
C293        C  0.40040798  0.31552540  0.70108162     0.00600
C294        C  0.39303155  0.35293368  0.69382924    -0.07800
C295        C  0.35936790  0.34935662  0.66661536     0.62500
H296        H  0.41122182  0.42253014  0.70769023     0.13200
H297        H  0.43827585  0.29281175  0.73114827     0.13300
C298        C  0.99520213  0.36359778  0.76602004     0.62800
F299        F  0.35119183  0.38597590  0.66778644    -0.22400
F300        F  0.31751731  0.30939930  0.67091316    -0.19700
F301        F  0.37722026  0.34913473  0.63496083    -0.19400
F302        F  0.02065582  0.40424716  0.78251753    -0.19400
F303        F  0.02515914  0.35589008  0.74634598    -0.19800
F304        F  0.97516141  0.32904689  0.78996868    -0.22400
C305        C  0.47368017  0.20655876  0.01362080    -0.05300
C306        C  0.47713898  0.23661490  0.98752679     0.00700
C307        C  0.01045715  0.28483615  0.98951398    -0.07900
C308        C  0.03850737  0.30041555  0.01848914    -0.05300
C309        C  0.03379813  0.27037766  0.04501265     0.00600
C310        C  0.50046759  0.22236264  0.04297014    -0.07800
C311        C  0.49460317  0.18893693  0.07092819     0.62500
H312        H  0.44832805  0.17043407  0.01128262     0.13200
H313        H  0.06448496  0.33634605  0.02076297     0.13300
C314        C  0.01403375  0.31876453  0.96260343     0.62800
F315        F  0.46235972  0.14413338  0.06268819    -0.22400
F316        F  0.47969994  0.20065464  0.10008401    -0.19700
F317        F  0.03689109  0.19124332  0.07657045    -0.19400
F318        F  0.46968327  0.31551457  0.96007251    -0.19400
F319        F  0.02701951  0.30826610  0.93202300    -0.19800
F320        F  0.04641216  0.36348671  0.97095940    -0.22400
C321        C  0.23642225  0.02973276  0.01381592    -0.05300
C322        C  0.26653037  0.02729934  0.99003353     0.00700
C323        C  0.28317434  0.99644355  0.99492038    -0.07900
C324        C  0.26508405  0.46569951  0.02011545    -0.05300
C325        C  0.23845287  0.47037038  0.04586871     0.00600
C326        C  0.22440584  0.50358885  0.04282561    -0.07800
C327        C  0.19328981  0.50795945  0.06885883     0.62500
H328        H  0.22496855  0.05444393  0.00975342     0.13200
H329        H  0.27477040  0.43943575  0.02272627     0.13300
C330        C  0.31575601  0.99303496  0.96979191     0.62800
F331        F  0.17316149  0.03392809  0.05574723    -0.22400
F332        F  0.21525629  0.52004941  0.09988989    -0.19700
F333        F  0.15274027  0.46640367  0.07155938    -0.19400
F334        F  0.35518843  0.03543494  0.96620038    -0.19400
F335        F  0.29371135  0.97872179  0.93892945    -0.19800
F336        F  0.31987162  0.45533549  0.97315068    -0.22400
C337        C  0.25625463  0.20967367  0.02943067    -0.05300
C338        C  0.27290895  0.23558549  0.99939080     0.00700
C339        C  0.27785586  0.27985896  0.99755388    -0.07900
C340        C  0.26411466  0.29585982  0.02561468    -0.05300
C341        C  0.24536706  0.26908969  0.05500710     0.00600
C342        C  0.24217645  0.22564844  0.05745094    -0.07800
C343        C  0.22272283  0.19580023  0.08879165     0.62500
H344        H  0.25371155  0.17622578  0.03057253     0.13200
H345        H  0.26659147  0.32929063  0.02443959     0.13300
C346        C  0.29798599  0.31040071  0.96655657     0.62800
F347        F  0.22126289  0.15402201  0.08516956    -0.22400
F348        F  0.17821984  0.18712657  0.09493447    -0.19700
F349        F  0.25017544  0.21805535  0.11644017    -0.19400
F350        F  0.26862802  0.29107574  0.93930310    -0.19400
F351        F  0.34073976  0.31539845  0.95875015    -0.19800
F352        F  0.30383382  0.35381172  0.97181767    -0.22400
C353        C  0.45379044  0.11788783  0.82193408    -0.05300
C354        C  0.41239718  0.09022794  0.83968049     0.00700
C355        C  0.39705167  0.04228626  0.84272898    -0.07900
C356        C  0.42245724  0.02416696  0.82668206    -0.05300
C357        C  0.46286382  0.05181269  0.80825953     0.00600
C358        C  0.48007711  0.09990750  0.80727713    -0.07800
C359        C  0.52650808  0.13408098  0.79237091     0.62500
H360        H  0.46667750  0.15452303  0.82019081     0.13200
H361        H  0.41011554  0.98759605  0.82746334     0.13300
C362        C  0.35516568  0.01013300  0.86374022     0.62800
F363        F  0.55070140  0.16887319  0.81554215    -0.22400
F364        F  0.51993023  0.15301251  0.76329990    -0.19700
F365        F  0.55332625  0.11453043  0.78483228    -0.19400
F366        F  0.31547441  0.00572999  0.84926361    -0.19400
F367        F  0.36035438  0.02757144  0.89613923    -0.19800
F368        F  0.34989325  0.96659128  0.86623362    -0.22400
C369        C  0.17472104  0.05832508  0.82080086    -0.05300
C370        C  0.17987907  0.09070606  0.84520672     0.00700
C371        C  0.14189978  0.09756114  0.85226132    -0.07900
C372        C  0.10112499  0.07324390  0.83297765    -0.05300
C373        C  0.09625472  0.04136692  0.80772810     0.00600
C374        C  0.13361835  0.03235243  0.80288415    -0.07800
C375        C  0.13340331  0.99518136  0.78089716     0.62500
H376        H  0.20335570  0.05228456  0.81601277     0.13200
H377        H  0.07273498  0.07963299  0.83728072     0.13300
C378        C  0.14345372  0.12903491  0.88061165     0.62800
F379        F  0.16774242  0.01498000  0.75654695    -0.22400
F380        F  0.09237094  0.96854875  0.76500426    -0.19700
F381        F  0.14073095  0.46629815  0.80021433    -0.19400
F382        F  0.17468872  0.17418429  0.87261073    -0.19400
F383        F  0.15643823  0.11728601  0.91055820    -0.19800
F384        F  0.10082536  0.12573056  0.88596199    -0.22400
C385        C  0.44424891  0.35368478  0.85652591    -0.05300
C386        C  0.40170978  0.31957928  0.84400116     0.00700
C387        C  0.37969236  0.33101436  0.81830102    -0.07900
C388        C  0.40241882  0.37608351  0.80515825    -0.05300
C389        C  0.44758452  0.40919212  0.81495452     0.00600
C390        C  0.46759416  0.39855702  0.84310976    -0.07800
C391        C  0.01282025  0.43310552  0.85973873     0.62500
H392        H  0.45903527  0.34458566  0.87746585     0.13200
H393        H  0.38596097  0.38512994  0.78539949     0.13300
C394        C  0.33395843  0.29523487  0.80321460     0.62800
F395        F  0.02736173  0.41247334  0.88330777    -0.22400
F396        F  0.00698472  0.46587176  0.87679458    -0.19700
F397        F  0.04758990  0.45365341  0.83612791    -0.19400
F398        F  0.29917378  0.28142481  0.82715062    -0.19400
F399        F  0.33720329  0.25759589  0.79254969    -0.19800
F400        F  0.32174214  0.31211743  0.77550803    -0.22400
Zn401      Zn  0.39812061  0.70033540  0.89122354     1.49700
Zn402      Zn  0.29920031  0.69848713  0.89798639     1.49400
Zn403      Zn  0.30214570  0.60326061  0.89260207     1.49100
Zn404      Zn  0.33699308  0.66537623  0.95697531     1.49500
O405        O  0.33422984  0.66700890  0.90853924    -1.83600
O406        O  0.40667444  0.75657897  0.86509850    -0.74300
O407        O  0.24043967  0.65586215  0.87255320    -0.74100
O408        O  0.34559815  0.59067498  0.86380540    -0.73600
O409        O  0.33941422  0.75533970  0.87042485    -0.74300
O410        O  0.41215414  0.65648047  0.86335882    -0.73900
O411        O  0.24452403  0.59191111  0.86740249    -0.74500
O412        O  0.30624887  0.60450317  0.97541130    -0.73800
O413        O  0.28071601  0.72052598  0.94045905    -0.74600
O414        O  0.28046287  0.55699142  0.93169822    -0.74000
O415        O  0.30960522  0.69667798  0.98065504    -0.74500
O416        O  0.39873027  0.69367602  0.97408684    -0.74400
O417        O  0.44523152  0.72500735  0.93006157    -0.74200
C418        C  0.38111520  0.77451768  0.86003036     0.77600
C419        C  0.22347095  0.61451694  0.86239697     0.78100
C420        C  0.38828208  0.61379439  0.85575247     0.77100
C421        C  0.28520858  0.56440130  0.96348732     0.77500
C422        C  0.28827663  0.71709878  0.97161958     0.78600
C423        C  0.43868082  0.71760434  0.96182265     0.77600
Zn424      Zn  0.33327862  0.66655750  0.67921533     1.49700
Zn425      Zn  0.36018192  0.73010256  0.61190938     1.49400
Zn426      Zn  0.37062250  0.64015820  0.61208452     1.49100
Zn427      Zn  0.27204351  0.63100910  0.61106795     1.49500
O428        O  0.33431616  0.66716037  0.62928727    -1.83600
O429        O  0.36457317  0.73471170  0.69620053    -0.74300
O430        O  0.41638968  0.74755026  0.58357645    -0.74100
O431        O  0.39187044  0.61482398  0.64979833    -0.73600
O432        O  0.37670475  0.77639367  0.64944306    -0.74300
O433        O  0.36715722  0.63191081  0.69716182    -0.73900
O434        O  0.42480008  0.68599853  0.58544237    -0.74500
O435        O  0.26482500  0.57979431  0.58154077    -0.73800
O436        O  0.31809002  0.73616619  0.57897260    -0.74600
O437        O  0.33563113  0.59047121  0.57770222    -0.74000
O438        O  0.25645977  0.66688207  0.57882400    -0.74500
O439        O  0.22469364  0.60672758  0.64757015    -0.74400
O440        O  0.26483449  0.63187180  0.69530230    -0.74200
C441        C  0.37817427  0.77359212  0.68152967     0.77600
C442        C  0.43733893  0.72619978  0.57477222     0.78100
C443        C  0.38808970  0.61346129  0.68199798     0.77100
C444        C  0.29380211  0.57054678  0.56805064     0.77500
C445        C  0.27844829  0.70759457  0.56757819     0.78600
C446        C  0.22621541  0.61010729  0.67969139     0.77600
C447        C  0.99812319  0.49347544  0.73751575     0.46000
H448        H  0.99462068  0.48925624  0.70989851    -0.03100
C449        C  0.00258561  0.50078240  0.80309432     0.46000
H450        H  0.00545031  0.00571455  0.83198496    -0.03100
C451        C  0.04864116  0.51763691  0.75081170    -0.16800
C452        C  0.47711940  0.52264813  0.75174951    -0.16500
C453        C  0.47451692  0.94724586  0.75739061    -0.16900
C454        C  0.05069298  0.51963280  0.78593879    -0.16900
C455        C  0.48036182  0.52658432  0.78653292    -0.16400
C456        C  0.47544120  0.95133757  0.79238072    -0.16700
Zn457      Zn  0.17251590  0.83524946  0.45480871     1.49700
Zn458      Zn  0.10174720  0.80334004  0.39383816     1.49400
Zn459      Zn  0.19904996  0.89762187  0.39087799     1.49100
Zn460      Zn  0.19761779  0.80043172  0.38939537     1.49500
O461        O  0.16734042  0.83384905  0.40625883    -1.83600
O462        O  0.11341967  0.81547282  0.47701166    -0.74300
O463        O  0.08807465  0.84743380  0.36731212    -0.74100
O464        O  0.22474041  0.94252991  0.43008774    -0.73600
O465        O  0.06115942  0.78506681  0.43630190    -0.74300
O466        O  0.21522531  0.89611753  0.47301529    -0.73900
O467        O  0.15579013  0.91210158  0.36500458    -0.74500
O468        O  0.25409101  0.84332889  0.36180501    -0.73800
O469        O  0.08519017  0.74538751  0.36631087    -0.74600
O470        O  0.25373730  0.90943702  0.36212997    -0.74000
O471        O  0.15201099  0.74581981  0.36195298    -0.74500
O472        O  0.21899503  0.77430433  0.42758003    -0.74400
O473        O  0.19341576  0.79453132  0.47259721    -0.74200
C474        C  0.07176489  0.79413221  0.46747422     0.77600
C475        C  0.11286160  0.88932965  0.35821901     0.78100
C476        C  0.23076972  0.93600417  0.46096974     0.77100
C477        C  0.27218455  0.88550511  0.35350038     0.77500
C478        C  0.10882694  0.72723094  0.35590550     0.78600
C479        C  0.21289412  0.77412518  0.45947602     0.77600
Zn480      Zn  0.19811257  0.80418711  0.14919832     1.49700
Zn481      Zn  0.19629440  0.89987660  0.14492288     1.49400
Zn482      Zn  0.16868589  0.83430067  0.08289567     1.49100
Zn483      Zn  0.10012360  0.80233488  0.14445275     1.49500
O484        O  0.16562205  0.83496350  0.13143343    -1.83600
O485        O  0.25251699  0.84979994  0.17799790    -0.74300
O486        O  0.21863845  0.94362005  0.10471244    -0.74100
O487        O  0.19927069  0.80251310  0.06604642    -0.73600
O488        O  0.25223205  0.91581672  0.17334768    -0.74300
O489        O  0.22580628  0.78366636  0.11088741    -0.73900
O490        O  0.20263289  0.89430624  0.06272749    -0.74500
O491        O  0.05821080  0.78267822  0.10264726    -0.73800
O492        O  0.15225811  0.91251628  0.17087066    -0.74600
O493        O  0.10932959  0.80719114  0.06074652    -0.74000
O494        O  0.08635414  0.84584711  0.17162335    -0.74500
O495        O  0.08501356  0.74403379  0.17118730    -0.74400
O496        O  0.15240798  0.74614760  0.17492301    -0.74200
C497        C  0.27057066  0.89282660  0.18404496     0.77600
C498        C  0.21923517  0.93486379  0.07339871     0.78100
C499        C  0.22196022  0.78545782  0.07887633     0.77100
C500        C  0.06810060  0.78766523  0.07111340     0.77500
C501        C  0.10987872  0.88854264  0.17900337     0.78600
C502        C  0.10885526  0.72580757  0.18067535     0.78200
C503        C  0.00209677  0.50047126  0.23638258     0.46000
H504        H  0.00443298  0.50152258  0.20848974    -0.03100
C505        C  0.99956172  0.50189966  0.30220992     0.46000
H506        H  0.99770737  0.50269521  0.32984456    -0.03100
C507        C  0.45102779  0.98043555  0.24959380    -0.16800
C508        C  0.01960312  0.97189312  0.25333246    -0.16500
C509        C  0.02902361  0.54931010  0.25155739    -0.16900
C510        C  0.44981988  0.98117878  0.28464026    -0.16900
C511        C  0.01950371  0.97359511  0.28841546    -0.16400
C512        C  0.02787878  0.55025094  0.28641254    -0.16700
C513        C  0.11553072  0.66637983  0.21416529    -0.05300
C514        C  0.08630445  0.67959288  0.19812452     0.00700
C515        C  0.03791580  0.64710744  0.19735018    -0.07900
C516        C  0.02128883  0.60401577  0.21345941    -0.05300
C517        C  0.05077120  0.59185335  0.23004486     0.00600
C518        C  0.09899094  0.62288575  0.22903268    -0.07800
C519        C  0.13491116  0.61181569  0.24218903     0.62500
H520        H  0.15243791  0.69004853  0.21454738     0.13200
H521        H  0.48468506  0.57986218  0.21406984     0.13300
C522        C  0.00356864  0.65680588  0.17931574     0.62800
F523        F  0.15630852  0.63881804  0.27019493    -0.22400
F524        F  0.16782280  0.62133093  0.21728330    -0.19700
F525        F  0.11648262  0.56627415  0.25081558    -0.19400
F526        F  0.01645480  0.66696197  0.14574721    -0.19400
F527        F  0.00223590  0.69325258  0.19465926    -0.19800
F528        F  0.45928893  0.61936667  0.17965330    -0.22400
C529        C  0.34952312  0.90608388  0.18953926    -0.05300
C530        C  0.31655947  0.91737932  0.20064321     0.00700
C531        C  0.32946166  0.95292972  0.22479545    -0.07900
C532        C  0.37524977  0.97560690  0.23697043    -0.05300
C533        C  0.40775871  0.96204407  0.22791202     0.00600
C534        C  0.39482704  0.92754271  0.20231484    -0.07800
C535        C  0.42688126  0.91163023  0.18824559     0.62500
H536        H  0.33927581  0.88010670  0.17005217     0.13200
H537        H  0.38546472  0.00303439  0.25512237     0.13300
C538        C  0.29460666  0.96509944  0.23928589     0.62800
F539        F  0.40446417  0.87402033  0.16697348    -0.22400
F540        F  0.44444185  0.89848619  0.21439063    -0.19700
F541        F  0.46199862  0.94620822  0.16964542    -0.19400
F542        F  0.25609037  0.92572054  0.25084623    -0.19400
F543        F  0.28151048  0.98557464  0.21468082    -0.19800
F544        F  0.31255854  0.99530426  0.26628212    -0.22400
C545        C  0.05306552  0.88413936  0.22116767    -0.05300
C546        C  0.08708559  0.91064867  0.19730411     0.00700
C547        C  0.09610494  0.95590757  0.19014664    -0.07900
C548        C  0.07163106  0.97320838  0.20818932    -0.05300
C549        C  0.03872819  0.94731100  0.23299078     0.00600
C550        C  0.02766007  0.90086102  0.23848880    -0.07800
C551        C  0.48876542  0.86592005  0.26086325     0.62500
H552        H  0.04548520  0.84923411  0.22596911     0.13200
H553        H  0.08135544  0.50936420  0.20419969     0.13300
C554        C  0.13024620  0.98569945  0.16300499     0.62800
F555        F  0.46055735  0.82726380  0.24191224    -0.22400
F556        F  0.46130895  0.88204044  0.27415195    -0.19700
F557        F  0.50718940  0.85298220  0.28710491    -0.19400
F558        F  0.11979283  0.96164617  0.13285526    -0.19400
F559        F  0.17472001  0.99808406  0.17271391    -0.19800
F560        F  0.13280206  0.52881787  0.15893975    -0.22400
C561        C  0.34732995  0.95523146  0.34261324    -0.05300
C562        C  0.31716919  0.90863431  0.33521611     0.00700
C563        C  0.33086756  0.88620030  0.31115741    -0.07900
C564        C  0.37518987  0.91085051  0.29668774    -0.05300
C565        C  0.40548576  0.95739190  0.30422805     0.00600
C566        C  0.39096954  0.98038153  0.32712321    -0.07800
C567        C  0.42094765  0.53039673  0.33428892     0.62500
H568        H  0.33639442  0.97202923  0.36090291     0.13200
H569        H  0.38651983  0.89404457  0.27871799     0.13300
C570        C  0.29858437  0.83727944  0.29952778     0.62800
F571        F  0.39652555  0.54627666  0.35303905    -0.22400
F572        F  0.43309697  0.55399744  0.30398179    -0.19700
F573        F  0.46015757  0.54023991  0.35230022    -0.19400
F574        F  0.25641225  0.83253349  0.29038791    -0.19400
F575        F  0.29222350  0.80681860  0.32530905    -0.19800
F576        F  0.31604695  0.82564519  0.27165745    -0.22400
C577        C  0.10101479  0.65081780  0.34657751    -0.05300
C578        C  0.08591030  0.68191437  0.33826222     0.00700
C579        C  0.05049430  0.66888301  0.31388973    -0.07900
C580        C  0.03218207  0.62537500  0.29846075    -0.05300
C581        C  0.04754821  0.59424960  0.30646426     0.00600
C582        C  0.08235721  0.60706204  0.33153191    -0.07800
C583        C  0.10088882  0.57588244  0.34254089     0.62500
H584        H  0.12746973  0.66100812  0.36570465     0.13200
H585        H  0.50576899  0.61565521  0.27951275     0.13300
C586        C  0.03276351  0.70088419  0.30340320     0.62800
F587        F  0.13875379  0.59821243  0.36365756    -0.22400
F588        F  0.11473925  0.56085668  0.31479089    -0.19700
F589        F  0.06736177  0.53868217  0.36009452    -0.19400
F590        F  0.06937228  0.74298550  0.29382043    -0.19400
F591        F  0.00937266  0.70686066  0.33018524    -0.19800
F592        F  0.50307304  0.68402320  0.27618233    -0.22400
C593        C  0.04875483  0.90628120  0.35418271    -0.05300
C594        C  0.09068560  0.91274812  0.34096711     0.00700
C595        C  0.11058027  0.94191497  0.31265315    -0.07900
C596        C  0.08801869  0.96420048  0.29908378    -0.05300
C597        C  0.04410531  0.95529892  0.31034998     0.00600
C598        C  0.02470013  0.92670472  0.33955322    -0.07800
C599        C  0.47988955  0.91719620  0.35617581     0.62500
H600        H  0.03501899  0.88496840  0.37650984     0.13200
H601        H  0.10412870  0.98786283  0.27833196     0.13300
C602        C  0.15378875  0.94732851  0.29525532     0.62800
F603        F  0.46409946  0.88104048  0.37890658    -0.22400
F604        F  0.44602550  0.90520152  0.33225708    -0.19700
F605        F  0.48569782  0.95514920  0.37399455    -0.19400
F606        F  0.14848654  0.90447432  0.28846324    -0.19400
F607        F  0.19181011  0.97167952  0.31578497    -0.19800
F608        F  0.16230030  0.97058844  0.26475475    -0.22400
C609        C  0.23341822  0.00300764  0.48775008    -0.05300
C610        C  0.25286991  0.97467598  0.48460421     0.00700
C611        C  0.28746359  0.97923341  0.50741557    -0.07900
C612        C  0.29926647  0.50937303  0.53675481    -0.05300
C613        C  0.27913167  0.53739492  0.53964207     0.00600
C614        C  0.24804272  0.53537411  0.51416971    -0.07800
C615        C  0.22767942  0.56715342  0.51395583     0.62500
H616        H  0.20720164  0.99885422  0.46974544     0.13200
H617        H  0.32400316  0.51237172  0.55570495     0.13300
C618        C  0.31216004  0.95174907  0.50330448     0.62800
F619        F  0.20377321  0.56307586  0.48434960    -0.22400
F620        F  0.26263366  0.61235910  0.51654685    -0.19700
F621        F  0.19705922  0.55650781  0.54068003    -0.19400
F622        F  0.32053727  0.94793619  0.46938667    -0.19400
F623        F  0.28530683  0.90834466  0.51683782    -0.19800
F624        F  0.35433758  0.97283171  0.51973946    -0.22400
C625        C  0.04611269  0.76198401  0.52432545    -0.05300
C626        C  0.03626051  0.77805390  0.49434710     0.00700
C627        C  0.99542858  0.78088078  0.49216119    -0.07900
C628        C  0.46651236  0.76749284  0.52075350    -0.05300
C629        C  0.47425626  0.74678632  0.54907179     0.00600
C630        C  0.51461597  0.74304312  0.55063901    -0.07800
C631        C  0.52605076  0.72322624  0.58131418     0.62500
H632        H  0.07780204  0.76051786  0.52571009     0.13200
H633        H  0.43537186  0.77000886  0.52006153     0.13300
C634        C  0.98440530  0.80019858  0.46104823     0.62800
F635        F  0.57146131  0.73264786  0.58057433    -0.22400
F636        F  0.49779509  0.67605948  0.58201241    -0.19700
F637        F  0.51981600  0.74199904  0.61077189    -0.19400
F638        F  0.97593446  0.77116313  0.43376956    -0.19400
F639        F  0.02120084  0.84316914  0.45347012    -0.19800
F640        F  0.94574739  0.80475152  0.46601375    -0.22400
C641        C  0.29089628  0.74991325  0.51405237    -0.05300
C642        C  0.25945932  0.72130833  0.53894467     0.00700
C643        C  0.21173228  0.70628685  0.53534782    -0.07900
C644        C  0.19759196  0.72188877  0.50729477    -0.05300
C645        C  0.22924843  0.75138659  0.48299018     0.00600
C646        C  0.27659991  0.76540495  0.48604501    -0.07800
C647        C  0.31200715  0.79819066  0.46072248     0.62500
H648        H  0.32709620  0.76035323  0.51683697     0.13200
H649        H  0.16158426  0.71227763  0.50455101     0.13300
C650        C  0.17605655  0.67574521  0.56150917     0.62800
F651        F  0.35651192  0.80907690  0.46929461    -0.22400
F652        F  0.31041725  0.83861314  0.45947840    -0.19700
F653        F  0.30256660  0.77817760  0.42894271    -0.19400
F654        F  0.18977802  0.69441632  0.59352783    -0.19400
F655        F  0.17112879  0.63231481  0.56074402    -0.19800
F656        F  0.13310548  0.67115511  0.55538958    -0.22400
C657        C  0.40931673  0.53447584  0.74109667    -0.05300
C658        C  0.45371753  0.54350114  0.73079603     0.00700
C659        C  0.47572851  0.57579346  0.70398584    -0.07900
C660        C  0.45276804  0.59740554  0.68934445    -0.05300
C661        C  0.40983343  0.59025138  0.70107972     0.00600
C662        C  0.38794415  0.55858389  0.72790798    -0.07800
C663        C  0.34220154  0.55004881  0.74255706     0.62500
H664        H  0.39181962  0.50897097  0.76062772     0.13200
H665        H  0.46884904  0.62123925  0.66855436     0.13300
C666        C  0.52380720  0.58947296  0.69109416     0.62800
F667        F  0.32586138  0.51656853  0.76747471    -0.22400
F668        F  0.30943084  0.53589352  0.71720802    -0.19700
F669        F  0.34771581  0.59006719  0.75701188    -0.19400
F670        F  0.54273157  0.12849241  0.67050953    -0.19400
F671        F  0.02374449  0.55303028  0.67470988    -0.19800
F672        F  0.55430533  0.60383523  0.71767372    -0.22400
C673        C  0.14595892  0.54544996  0.68555846    -0.05300
C674        C  0.18123708  0.58751906  0.69827982     0.00700
C675        C  0.17110216  0.60823682  0.72574320    -0.07900
C676        C  0.12598110  0.58611730  0.73912632    -0.05300
C677        C  0.09154601  0.54191643  0.72868825     0.00600
C678        C  0.10151642  0.52161916  0.70039515    -0.07800
C679        C  0.06693461  0.47543775  0.68514006     0.62500
H680        H  0.15382915  0.53084628  0.66375165     0.13200
H681        H  0.11771356  0.60279937  0.75920583     0.13300
C682        C  0.20748274  0.65332750  0.74113107     0.62800
F683        F  0.08858049  0.45786482  0.66494780    -0.22400
F684        F  0.03591876  0.48039274  0.66504961    -0.19700
F685        F  0.04386697  0.94391707  0.71141818    -0.19400
F686        F  0.22655118  0.68679242  0.71631953    -0.19400
F687        F  0.24177898  0.64738483  0.75574288    -0.19800
F688        F  0.18928610  0.66882172  0.76615243    -0.22400
C689        C  0.41723178  0.89596177  0.71415197    -0.05300
C690        C  0.45049585  0.90168073  0.73842226     0.00700
C691        C  0.45813689  0.86365879  0.74401786    -0.07900
C692        C  0.43150539  0.82225419  0.72637382    -0.05300
C693        C  0.39937801  0.81711665  0.70179973     0.00600
C694        C  0.39176396  0.85462227  0.69558227    -0.07800
C695        C  0.35698665  0.85143516  0.66950652     0.62500
H696        H  0.41132468  0.92448757  0.70970339     0.13200
H697        H  0.43785346  0.79390696  0.73063392     0.13300
C698        C  0.99504580  0.86340460  0.76631161     0.62800
F699        F  0.34612596  0.88599098  0.67379997    -0.22400
F700        F  0.31642465  0.80983374  0.67233750    -0.19700
F701        F  0.37522781  0.85542901  0.63733635    -0.19400
F702        F  0.02090307  0.90379702  0.78304972    -0.19400
F703        F  0.02463195  0.85558538  0.74628008    -0.19800
F704        F  0.97487776  0.82859676  0.79006137    -0.22400
C705        C  0.47362185  0.70689291  0.01265826    -0.05300
C706        C  0.47650054  0.73665226  0.98654175     0.00700
C707        C  0.00723865  0.78385202  0.99001253    -0.07900
C708        C  0.03569935  0.79971883  0.01877932    -0.05300
C709        C  0.03228375  0.76967198  0.04489265     0.00600
C710        C  0.50111954  0.72301115  0.04167802    -0.07800
C711        C  0.49619525  0.68971360  0.06948373     0.62500
H712        H  0.44827579  0.67073865  0.01056718     0.13200
H713        H  0.06094625  0.83585502  0.02120391     0.13300
C714        C  0.00916930  0.81767053  0.96362849     0.62800
F715        F  0.46433934  0.64476216  0.06131048    -0.22400
F716        F  0.48141143  0.70095873  0.09892255    -0.19700
F717        F  0.03846004  0.69165953  0.07515231    -0.19400
F718        F  0.46791533  0.81451266  0.95879909    -0.19400
F719        F  0.02283720  0.80865751  0.93276547    -0.19800
F720        F  0.04014002  0.86264820  0.97242000    -0.22400
C721        C  0.23833529  0.53173435  0.01408257    -0.05300
C722        C  0.26527881  0.52733942  0.98851769     0.00700
C723        C  0.27909186  0.49398720  0.99140876    -0.07900
C724        C  0.26887399  0.96866120  0.02389500    -0.05300
C725        C  0.23868846  0.97105565  0.04769654     0.00600
C726        C  0.22161772  0.00157112  0.04255540    -0.07800
C727        C  0.18669596  0.00310244  0.06644296     0.62500
H728        H  0.22885690  0.55815381  0.01147998     0.13200
H729        H  0.28045010  0.94404362  0.02794828     0.13300
C730        C  0.30982345  0.48959425  0.96512369     0.62800
F731        F  0.18203575  0.54112060  0.05998536    -0.22400
F732        F  0.20580873  0.01640171  0.09832379    -0.19700
F733        F  0.14777015  0.96005229  0.06816173    -0.19400
F734        F  0.35101471  0.53066235  0.96300507    -0.19400
F735        F  0.28784736  0.47904536  0.93408480    -0.19800
F736        F  0.32899326  0.96178507  0.97998862    -0.22400
C737        C  0.25556341  0.71005802  0.02879072    -0.05300
C738        C  0.27221043  0.73608706  0.99880114     0.00700
C739        C  0.27721354  0.78040904  0.99716731    -0.07900
C740        C  0.26323184  0.79618201  0.02526437    -0.05300
C741        C  0.24440946  0.76924493  0.05458156     0.00600
C742        C  0.24144234  0.72587946  0.05689733    -0.07800
C743        C  0.22216793  0.69592494  0.08819812     0.62500
H744        H  0.25305002  0.67661379  0.02982566     0.13200
H745        H  0.26563063  0.82958707  0.02418744     0.13300
C746        C  0.29770491  0.81125641  0.96636157     0.62800
F747        F  0.22110818  0.65434036  0.08451864    -0.22400
F748        F  0.17754220  0.68687328  0.09433669    -0.19700
F749        F  0.24952153  0.71826327  0.11586907    -0.19400
F750        F  0.26853333  0.79235289  0.93896309    -0.19400
F751        F  0.34041396  0.81608395  0.95864215    -0.19800
F752        F  0.30378127  0.85471397  0.97187024    -0.22400
C753        C  0.45185089  0.61746459  0.81951785    -0.05300
C754        C  0.41143741  0.59037518  0.83844859     0.00700
C755        C  0.39724426  0.54291645  0.84307420    -0.07900
C756        C  0.42212615  0.52431480  0.82687587    -0.05300
C757        C  0.46143796  0.55126710  0.80716575     0.00600
C758        C  0.47806717  0.59923600  0.80504622    -0.07800
C759        C  0.52400019  0.63308015  0.78929294     0.62500
H760        H  0.46412614  0.65389846  0.81680893     0.13200
H761        H  0.41025463  0.48788876  0.82871150     0.13300
C762        C  0.35748839  0.51206356  0.86624521     0.62800
F763        F  0.54852957  0.66881249  0.81169899    -0.22400
F764        F  0.51655027  0.65075250  0.75989664    -0.19700
F765        F  0.55093017  0.61355423  0.78206442    -0.19400
F766        F  0.31616882  0.50475381  0.85277904    -0.19400
F767        F  0.36448931  0.53272679  0.89758369    -0.19800
F768        F  0.35420900  0.46962307  0.87091975    -0.22400
C769        C  0.17329025  0.55836609  0.81992796    -0.05300
C770        C  0.17872204  0.59154111  0.84372643     0.00700
C771        C  0.14094500  0.59900877  0.85008783    -0.07900
C772        C  0.09995433  0.57397691  0.83109773    -0.05300
C773        C  0.09483898  0.54126008  0.80650312     0.00600
C774        C  0.13223751  0.53220462  0.80197794    -0.07800
C775        C  0.13232068  0.49508149  0.78009289     0.62500
H776        H  0.20180717  0.55203461  0.81548569     0.13200
H777        H  0.07162763  0.58059965  0.83495515     0.13300
C778        C  0.14302226  0.63216913  0.87723523     0.62800
F779        F  0.16711464  0.51497332  0.75607399    -0.22400
F780        F  0.09162748  0.46863216  0.76374779    -0.19700
F781        F  0.14223609  0.96654827  0.80085328    -0.19400
F782        F  0.17480035  0.67669472  0.86808787    -0.19400
F783        F  0.15565418  0.62170117  0.90786382    -0.19800
F784        F  0.10073034  0.62989126  0.88185151    -0.22400
C785        C  0.44477374  0.85439592  0.85695679    -0.05300
C786        C  0.40195373  0.82085415  0.84439035     0.00700
C787        C  0.38014367  0.83304648  0.81901855    -0.07900
C788        C  0.40342598  0.87816039  0.80606386    -0.05300
C789        C  0.44883610  0.91055135  0.81577781     0.00600
C790        C  0.46859688  0.89936411  0.84377148    -0.07800
C791        C  0.01420426  0.93318114  0.86057637     0.62500
H792        H  0.45940318  0.84477810  0.87769637     0.13200
H793        H  0.38718357  0.88780972  0.78653042     0.13300
C794        C  0.33391715  0.79806816  0.80414513     0.62800
F795        F  0.02840131  0.91224382  0.88413909    -0.22400
F796        F  0.00898747  0.96632093  0.87764135    -0.19700
F797        F  0.04891997  0.95332495  0.83687253    -0.19400
F798        F  0.29948794  0.78534542  0.82825619    -0.19400
F799        F  0.33579873  0.75967314  0.79353522    -0.19800
F800        F  0.32222687  0.81542659  0.77644383    -0.22400
Zn801      Zn  0.89945319  0.20057723  0.89181499     1.49700
Zn802      Zn  0.80056305  0.19813099  0.89871668     1.49400
Zn803      Zn  0.80360493  0.10304472  0.89411221     1.49100
Zn804      Zn  0.83872498  0.16571509  0.95789552     1.49500
O805        O  0.83572557  0.16699739  0.90950197    -1.83600
O806        O  0.90738566  0.25615331  0.86498765    -0.74300
O807        O  0.74187388  0.15517219  0.87369920    -0.74100
O808        O  0.84684701  0.09064355  0.86523163    -0.73600
O809        O  0.84002484  0.25457831  0.87059630    -0.74300
O810        O  0.91327267  0.15646921  0.86428640    -0.73900
O811        O  0.74577541  0.09107611  0.86897128    -0.74500
O812        O  0.80865392  0.10499626  0.97694422    -0.73800
O813        O  0.78211284  0.22026608  0.94097845    -0.74600
O814        O  0.78258362  0.05709588  0.93342541    -0.74000
O815        O  0.81112781  0.19686235  0.98139590    -0.74500
O816        O  0.90059487  0.19484295  0.97442373    -0.74400
O817        O  0.94706310  0.22602310  0.93035748    -0.74200
C818        C  0.88152688  0.27372873  0.85980674     0.77600
C819        C  0.72481555  0.11372714  0.86382602     0.78100
C820        C  0.88938034  0.11372652  0.85687136     0.77100
C821        C  0.78765402  0.06481243  0.96516656     0.77500
C822        C  0.78964359  0.21703891  0.97216282     0.78600
C823        C  0.94052471  0.21873928  0.96213108     0.77600
Zn824      Zn  0.83393734  0.16511172  0.67945987     1.49700
Zn825      Zn  0.86320472  0.22799748  0.61166071     1.49400
Zn826      Zn  0.86874348  0.13576319  0.61264396     1.49100
Zn827      Zn  0.77240010  0.13052970  0.61147112     1.49500
O828        O  0.83479399  0.16509797  0.62956302    -1.83600
O829        O  0.86506092  0.23315631  0.69623193    -0.74300
O830        O  0.91977373  0.24388507  0.58396080    -0.74100
O831        O  0.89117166  0.11184893  0.65037445    -0.73600
O832        O  0.87968697  0.27433320  0.64896009    -0.74300
O833        O  0.86811114  0.13106451  0.69762364    -0.73900
O834        O  0.92169225  0.17907645  0.58442233    -0.74500
O835        O  0.76295172  0.07845373  0.58198766    -0.73800
O836        O  0.82244331  0.23537812  0.57811248    -0.74600
O837        O  0.83236796  0.08567450  0.57922508    -0.74000
O838        O  0.75879871  0.16763097  0.57923122    -0.74500
O839        O  0.72521414  0.10769691  0.64795605    -0.74400
O840        O  0.76570323  0.13091988  0.69568049    -0.74200
C841        C  0.87973284  0.27189016  0.68112222     0.77600
C842        C  0.93742869  0.21985512  0.57401566     0.78100
C843        C  0.88851879  0.11199919  0.68259341     0.77100
C844        C  0.79093830  0.06753337  0.56894529     0.77500
C845        C  0.78210757  0.20784863  0.56730101     0.78600
C846        C  0.72699486  0.11040727  0.68009679     0.77600
C847        C  0.49987465  0.99464564  0.73866940     0.46000
H848        H  0.49638754  0.99066901  0.71100744    -0.03100
C849        C  0.50432531  0.00165553  0.80427326     0.46000
H850        H  0.50399310  0.50500774  0.83091852    -0.03100
C851        C  0.55033440  0.01853964  0.75202064    -0.16800
C852        C  0.97902890  0.02361603  0.75281935    -0.16500
C853        C  0.97311647  0.44612890  0.75636814    -0.16900
C854        C  0.55239233  0.02037764  0.78714377    -0.16900
C855        C  0.98212540  0.02743988  0.78757741    -0.16400
C856        C  0.97389261  0.45032271  0.79135032    -0.16700
Zn857      Zn  0.67287425  0.33345501  0.45543443     1.49700
Zn858      Zn  0.60422077  0.30358918  0.39289755     1.49400
Zn859      Zn  0.70183756  0.39735494  0.39162581     1.49100
Zn860      Zn  0.69950950  0.29962838  0.38970338     1.49500
O861        O  0.66931898  0.33333377  0.40665597    -1.83600
O862        O  0.61236495  0.30908652  0.47674912    -0.74300
O863        O  0.59157585  0.34817875  0.36616231    -0.74100
O864        O  0.72917874  0.44180152  0.43117341    -0.73600
O865        O  0.56199422  0.28413709  0.43438739    -0.74300
O866        O  0.71251130  0.39456129  0.47475828    -0.73900
O867        O  0.65908391  0.41315896  0.36579862    -0.74500
O868        O  0.75563590  0.34188711  0.36195755    -0.73800
O869        O  0.58806343  0.24600956  0.36527579    -0.74600
O870        O  0.75575485  0.40819816  0.36254325    -0.74000
O871        O  0.65415002  0.24489817  0.36233551    -0.74500
O872        O  0.72172121  0.27415206  0.42760229    -0.74400
O873        O  0.69719566  0.29533052  0.47270550    -0.74200
C874        C  0.57133911  0.28962031  0.46591945     0.77600
C875        C  0.61645589  0.39041314  0.35797038     0.78100
C876        C  0.73177343  0.43468481  0.46257684     0.77100
C877        C  0.77389307  0.38405853  0.35374881     0.77500
C878        C  0.61126431  0.22711069  0.35554881     0.78600
C879        C  0.71665810  0.27492488  0.45953530     0.77600
Zn880      Zn  0.69921566  0.30438096  0.14906599     1.49700
Zn881      Zn  0.69862470  0.40061502  0.14389145     1.49400
Zn882      Zn  0.66907055  0.33364451  0.08268756     1.49100
Zn883      Zn  0.60172056  0.30337636  0.14466028     1.49500
O884        O  0.66700911  0.33536571  0.13117419    -1.83600
O885        O  0.75384300  0.34983636  0.17781507    -0.74300
O886        O  0.72031842  0.44342986  0.10309985    -0.74100
O887        O  0.69999042  0.30233156  0.06591956    -0.73600
O888        O  0.75487496  0.41636647  0.17203356    -0.74300
O889        O  0.72665173  0.28370619  0.11080709    -0.73900
O890        O  0.70128669  0.39307511  0.06156147    -0.74500
O891        O  0.55887724  0.28355035  0.10333918    -0.73800
O892        O  0.65543170  0.41438114  0.17007703    -0.74600
O893        O  0.60953562  0.30542634  0.06124839    -0.74000
O894        O  0.58942680  0.34781654  0.17175513    -0.74500
O895        O  0.58633291  0.24507220  0.17150602    -0.74400
O896        O  0.65332228  0.24632133  0.17474317    -0.74200
C897        C  0.77259289  0.39306239  0.18330300     0.77600
C898        C  0.71890937  0.43393964  0.07175043     0.78100
C899        C  0.72272167  0.28537920  0.07880546     0.77100
C900        C  0.56848168  0.28719166  0.07177911     0.77500
C901        C  0.61323319  0.39061725  0.17876976     0.78600
C902        C  0.60983857  0.22636734  0.18071991     0.78200
C903        C  0.50060953  0.00060477  0.23590407     0.46000
H904        H  0.50306298  0.00181874  0.20805110    -0.03100
C905        C  0.49798645  0.00204992  0.30171457     0.46000
H906        H  0.49613900  0.00298229  0.32935027    -0.03100
C907        C  0.95246698  0.47946117  0.25012147    -0.16800
C908        C  0.52201148  0.47255963  0.25362566    -0.16500
C909        C  0.52840201  0.04933049  0.25108950    -0.16900
C910        C  0.95132265  0.48018163  0.28514421    -0.16900
C911        C  0.52223522  0.47449821  0.28869646    -0.16400
C912        C  0.52728415  0.05024471  0.28593305    -0.16700
C913        C  0.61592760  0.16547525  0.21275852    -0.05300
C914        C  0.58692891  0.17998711  0.19800290     0.00700
C915        C  0.53823292  0.14862416  0.19841353    -0.07900
C916        C  0.52123055  0.10522030  0.21408889    -0.05300
C917        C  0.55048344  0.09189056  0.22959084     0.00600
C918        C  0.59886804  0.12189731  0.22764936    -0.07800
C919        C  0.63440095  0.10973107  0.23991793     0.62500
H920        H  0.65302026  0.18826070  0.21226871     0.13200
H921        H  0.98443567  0.08196443  0.21608334     0.13300
C922        C  0.50380249  0.15996162  0.18239875     0.62800
F923        F  0.65780659  0.13727728  0.26723811    -0.22400
F924        F  0.66575254  0.11749918  0.21414409    -0.19700
F925        F  0.61516824  0.06435790  0.24926981    -0.19400
F926        F  0.51434542  0.16976918  0.14847971    -0.19400
F927        F  0.50520981  0.19720916  0.19866119    -0.19800
F928        F  0.95878101  0.12400680  0.18520477    -0.22400
C929        C  0.85083315  0.40459500  0.19029797    -0.05300
C930        C  0.81842825  0.41725809  0.20025936     0.00700
C931        C  0.83174964  0.45368251  0.22372888    -0.07900
C932        C  0.87705382  0.47523139  0.23688258    -0.05300
C933        C  0.90915852  0.46090414  0.22846716     0.00600
C934        C  0.89606382  0.42596159  0.20324299    -0.07800
C935        C  0.92818229  0.40999256  0.18947226     0.62500
H936        H  0.84041198  0.37799199  0.17128862     0.13200
H937        H  0.88742606  0.50290437  0.25483092     0.13300
C938        C  0.79800502  0.46867110  0.23596834     0.62800
F939        F  0.90572471  0.37180666  0.16873442    -0.22400
F940        F  0.94630255  0.39781272  0.21579199    -0.19700
F941        F  0.96296848  0.44433555  0.17048081    -0.19400
F942        F  0.75749661  0.43085705  0.24689074    -0.19400
F943        F  0.78832915  0.49005405  0.20992206    -0.19800
F944        F  0.81566641  0.49927685  0.26274766    -0.22400
C945        C  0.55683526  0.38596723  0.22122277    -0.05300
C946        C  0.59083682  0.41282424  0.19747728     0.00700
C947        C  0.59990175  0.45822506  0.19082427    -0.07900
C948        C  0.57480302  0.47492163  0.20876887    -0.05300
C949        C  0.54167446  0.44850566  0.23329214     0.00600
C950        C  0.53118463  0.40221399  0.23870307    -0.07800
C951        C  0.99249928  0.36687943  0.26101387     0.62500
H952        H  0.54946808  0.35108217  0.22584869     0.13200
H953        H  0.57805059  0.00735017  0.20294293     0.13300
C954        C  0.63466783  0.48875921  0.16430662     0.62800
F955        F  0.96444234  0.32843962  0.24180494    -0.22400
F956        F  0.96487155  0.38249291  0.27473667    -0.19700
F957        F  0.01120762  0.35375628  0.28694636    -0.19400
F958        F  0.62438197  0.46573682  0.13376431    -0.19400
F959        F  0.67884362  0.50023439  0.17418000    -0.19800
F960        F  0.62721324  0.02476971  0.15634333    -0.22400
C961        C  0.84880030  0.45367160  0.34300071    -0.05300
C962        C  0.81886767  0.40706970  0.33557548     0.00700
C963        C  0.83288013  0.38461539  0.31176440    -0.07900
C964        C  0.87712219  0.40953656  0.29723063    -0.05300
C965        C  0.90707415  0.45617520  0.30469159     0.00600
C966        C  0.89238402  0.47898854  0.32759164    -0.07800
C967        C  0.91946708  0.03145520  0.33374875     0.62500
H968        H  0.83771771  0.47037159  0.36126467     0.13200
H969        H  0.88870529  0.39285437  0.27934481     0.13300
C970        C  0.80111836  0.33536195  0.30056038     0.62800
F971        F  0.89527619  0.04745478  0.35265521    -0.22400
F972        F  0.93156150  0.05511345  0.30345041    -0.19700
F973        F  0.95876151  0.04114515  0.35158357    -0.19400
F974        F  0.75876545  0.32987063  0.29107640    -0.19400
F975        F  0.79502807  0.30551375  0.32674251    -0.19800
F976        F  0.81900024  0.32351431  0.27305598    -0.22400
C977        C  0.60239136  0.15026189  0.34591848    -0.05300
C978        C  0.58799925  0.18195925  0.33772926     0.00700
C979        C  0.55264698  0.16958262  0.31339934    -0.07900
C980        C  0.53320374  0.12587197  0.29822543    -0.05300
C981        C  0.54792438  0.09421512  0.30599797     0.00600
C982        C  0.58298548  0.10649010  0.33079148    -0.07800
C983        C  0.60100747  0.07472609  0.34138084     0.62500
H984        H  0.62891117  0.16001587  0.36492365     0.13200
H985        H  0.00594791  0.11595588  0.28019160     0.13300
C986        C  0.53624002  0.20252417  0.30256946     0.62800
F987        F  0.63838681  0.09612371  0.36303348    -0.22400
F988        F  0.61534227  0.06054593  0.31341392    -0.19700
F989        F  0.56699519  0.03703609  0.35818406    -0.19400
F990        F  0.57367256  0.24414718  0.29310487    -0.19400
F991        F  0.51297586  0.20927468  0.32906033    -0.19800
F992        F  0.00578493  0.18545224  0.27590994    -0.22400
C993        C  0.55244269  0.40747585  0.35417126    -0.05300
C994        C  0.59438998  0.41411920  0.34085842     0.00700
C995        C  0.61405123  0.44336197  0.31254280    -0.07900
C996        C  0.59136419  0.46575816  0.29924674    -0.05300
C997        C  0.54734476  0.45658285  0.31059012     0.00600
C998        C  0.52811229  0.42770976  0.33968384    -0.07800
C999        C  0.98262548  0.41696782  0.35633469     0.62500
H1000       H  0.53882048  0.38601515  0.37644566     0.13200
H1001       H  0.60727352  0.48946365  0.27847430     0.13300
C1002       C  0.65669981  0.44818553  0.29460137     0.62800
F1003       F  0.96714710  0.38068262  0.37892351    -0.22400
F1004       F  0.94876528  0.40474946  0.33238902    -0.19700
F1005       F  0.98787199  0.45460873  0.37428215    -0.19400
F1006       F  0.64954849  0.40509624  0.28606710    -0.19400
F1007       F  0.69485002  0.46997495  0.31537150    -0.19800
F1008       F  0.66634093  0.47354147  0.26501606    -0.22400
C1009       C  0.73590983  0.50302427  0.48801428    -0.05300
C1010       C  0.75385839  0.47327873  0.48639292     0.00700
C1011       C  0.78744533  0.47738270  0.51013918    -0.07900
C1012       C  0.79831953  0.00929997  0.53513099    -0.05300
C1013       C  0.77619784  0.03526785  0.53991831     0.00600
C1014       C  0.74449475  0.03341218  0.51498718    -0.07800
C1015       C  0.72190206  0.06320467  0.51660253     0.62500
H1016       H  0.71037240  0.49908142  0.46943132     0.13200
H1017       H  0.82386890  0.01208008  0.55329906     0.13300
C1018       C  0.81104297  0.44864626  0.50726963     0.62800
F1019       F  0.69708015  0.05934921  0.48754492    -0.22400
F1020       F  0.75536996  0.10888827  0.51996254    -0.19700
F1021       F  0.69156796  0.04998907  0.54373555    -0.19400
F1022       F  0.82963411  0.45341990  0.47512091    -0.19400
F1023       F  0.77973437  0.40286772  0.51316239    -0.19800
F1024       F  0.84654273  0.46222896  0.53044861    -0.22400
C1025       C  0.53183856  0.23545969  0.51170571    -0.05300
C1026       C  0.53469693  0.27099496  0.49152680     0.00700
C1027       C  0.50808005  0.29177478  0.49944149    -0.07900
C1028       C  0.97885804  0.27551246  0.52787574    -0.05300
C1029       C  0.97415686  0.23835269  0.54759566     0.00600
C1030       C  0.00200118  0.21821798  0.53975541    -0.07800
C1031       C  0.00145492  0.17983648  0.56068032     0.62500
H1032       H  0.55383463  0.22122420  0.50532629     0.13200
H1033       H  0.95789941  0.29096804  0.53393457     0.13300
C1034       C  0.51341352  0.33275078  0.47944727     0.62800
F1035       F  0.03723981  0.17207150  0.55182497    -0.22400
F1036       F  0.96049877  0.13926796  0.55556059    -0.19700
F1037       F  0.00634348  0.19133374  0.59470970    -0.19400
F1038       F  0.50317909  0.32085040  0.44573261    -0.19400
F1039       F  0.55843734  0.36847858  0.48195627    -0.19800
F1040       F  0.48435155  0.34814475  0.49133640    -0.22400
C1041       C  0.79476808  0.25007427  0.51358128    -0.05300
C1042       C  0.76341387  0.22202911  0.53875339     0.00700
C1043       C  0.71579110  0.20772873  0.53548542    -0.07900
C1044       C  0.70170952  0.22341391  0.50751695    -0.05300
C1045       C  0.73324709  0.25240655  0.48300168     0.00600
C1046       C  0.78045708  0.26565695  0.48560662    -0.07800
C1047       C  0.81565921  0.29758403  0.45981111     0.62500
H1048       H  0.83085755  0.25994709  0.51609141     0.13200
H1049       H  0.66578536  0.21420035  0.50496249     0.13300
C1050       C  0.68006359  0.17773073  0.56181785     0.62800
F1051       F  0.86005490  0.30747609  0.46780033    -0.22400
F1052       F  0.81515510  0.33855898  0.45855604    -0.19700
F1053       F  0.80503050  0.27718591  0.42816538    -0.19400
F1054       F  0.69449446  0.19617582  0.59381543    -0.19400
F1055       F  0.67388817  0.13381384  0.56079824    -0.19800
F1056       F  0.63754636  0.17436452  0.55610975    -0.22400
C1057       C  0.91060979  0.03391363  0.74156089    -0.05300
C1058       C  0.95560332  0.04427247  0.73188872     0.00700
C1059       C  0.97794694  0.07734389  0.70562080    -0.07900
C1060       C  0.95459307  0.09841781  0.69080232    -0.05300
C1061       C  0.91090931  0.08979406  0.70190523     0.00600
C1062       C  0.88871750  0.05734942  0.72818750    -0.07800
C1063       C  0.84205567  0.04725933  0.74195838     0.62500
H1064       H  0.89293041  0.00771938  0.76064135     0.13200
H1065       H  0.97081552  0.12283368  0.67033118     0.13300
C1066       C  0.02659507  0.09211287  0.69343236     0.62800
F1067       F  0.82549767  0.01309190  0.76635410    -0.22400
F1068       F  0.81023182  0.03313350  0.71594392    -0.19700
F1069       F  0.84596123  0.08646223  0.75673843    -0.19400
F1070       F  0.04019932  0.62538456  0.66783924    -0.19400
F1071       F  0.52786256  0.05658432  0.67734015    -0.19800
F1072       F  0.05643796  0.10684820  0.72043128    -0.22400
C1073       C  0.64686130  0.04612053  0.68628817    -0.05300
C1074       C  0.68222335  0.08822606  0.69879360     0.00700
C1075       C  0.67246365  0.10924170  0.72623097    -0.07900
C1076       C  0.62763629  0.08700955  0.74015612    -0.05300
C1077       C  0.59310960  0.04275299  0.72986472     0.00600
C1078       C  0.60269607  0.02234924  0.70146395    -0.07800
C1079       C  0.56801830  0.97608276  0.68641388     0.62500
H1080       H  0.65446202  0.03141255  0.66442236     0.13200
H1081       H  0.61969770  0.10366479  0.76042874     0.13300
C1082       C  0.70893408  0.15486473  0.74086915     0.62800
F1083       F  0.58966079  0.95803659  0.66670746    -0.22400
F1084       F  0.53736353  0.98112072  0.66593989    -0.19700
F1085       F  0.54308142  0.44310828  0.71008530    -0.19400
F1086       F  0.72741763  0.18760149  0.71551151    -0.19400
F1087       F  0.74366412  0.14963260  0.75547701    -0.19800
F1088       F  0.69098498  0.17092205  0.76566493    -0.22400
C1089       C  0.91732246  0.39433443  0.71258203    -0.05300
C1090       C  0.95001028  0.40047286  0.73748026     0.00700
C1091       C  0.95812336  0.36283438  0.74359604    -0.07900
C1092       C  0.93198436  0.32116711  0.72617084    -0.05300
C1093       C  0.90041546  0.31563183  0.70102975     0.00600
C1094       C  0.89288392  0.35296644  0.69388620    -0.07800
C1095       C  0.85891200  0.34923752  0.66688244     0.62500
H1096       H  0.91112075  0.42258752  0.70772858     0.13200
H1097       H  0.93844289  0.29298648  0.73097241     0.13300
C1098       C  0.49514885  0.36350378  0.76611538     0.62800
F1099       F  0.85051463  0.38570706  0.66825791    -0.22400
F1100       F  0.81720484  0.30915600  0.67130049    -0.19700
F1101       F  0.87653687  0.34913571  0.63511429    -0.19400
F1102       F  0.52062957  0.40418342  0.78257728    -0.19400
F1103       F  0.52508298  0.35579209  0.74641521    -0.19800
F1104       F  0.47517073  0.32898372  0.79009091    -0.22400
C1105       C  0.97461242  0.20741651  0.01308009    -0.05300
C1106       C  0.97823707  0.23744087  0.98690846     0.00700
C1107       C  0.50902468  0.28407756  0.99028222    -0.07900
C1108       C  0.53709304  0.29967858  0.01923832    -0.05300
C1109       C  0.53265761  0.26959145  0.04563549     0.00600
C1110       C  0.00140588  0.22319125  0.04242461    -0.07800
C1111       C  0.99534533  0.18974497  0.07043449     0.62500
H1112       H  0.94909004  0.17133092  0.01081350     0.13200
H1113       H  0.56289082  0.33565627  0.02158640     0.13300
C1114       C  0.51216306  0.31805213  0.96357227     0.62800
F1115       F  0.96297040  0.14498133  0.06220742    -0.22400
F1116       F  0.98049233  0.20157152  0.09956369    -0.19700
F1117       F  0.53625690  0.19063700  0.07700381    -0.19400
F1118       F  0.97177819  0.31665713  0.95890037    -0.19400
F1119       F  0.52523257  0.30798308  0.93285896    -0.19800
F1120       F  0.54424546  0.36281883  0.97205857    -0.22400
C1121       C  0.73598371  0.02901036  0.01302503    -0.05300
C1122       C  0.76785938  0.02795017  0.99025783     0.00700
C1123       C  0.78642553  0.99894199  0.99642756    -0.07900
C1124       C  0.76316994  0.46424982  0.01937664    -0.05300
C1125       C  0.73742029  0.46957846  0.04550204     0.00600
C1126       C  0.72442978  0.50362637  0.04292542    -0.07800
C1127       C  0.69417474  0.50873349  0.06932473     0.62500
H1128       H  0.72320085  0.05247719  0.00808600     0.13200
H1129       H  0.77213727  0.43743273  0.02167532     0.13300
C1130       C  0.82045833  0.99657588  0.97216969     0.62800
F1131       F  0.66938068  0.03020374  0.05298247    -0.22400
F1132       F  0.71644909  0.52007971  0.10025224    -0.19700
F1133       F  0.65304761  0.46773090  0.07199480    -0.19400
F1134       F  0.85849070  0.03981243  0.96777702    -0.19400
F1135       F  0.79882995  0.97991988  0.94144303    -0.19800
F1136       F  0.81642234  0.45262080  0.97178295    -0.22400
C1137       C  0.75640564  0.20989369  0.02908178    -0.05300
C1138       C  0.77327156  0.23593804  0.99912710     0.00700
C1139       C  0.77800015  0.28012525  0.99726719    -0.07900
C1140       C  0.76392043  0.29594334  0.02525682    -0.05300
C1141       C  0.74508916  0.26907977  0.05459680     0.00600
C1142       C  0.74195178  0.22565787  0.05700787    -0.07800
C1143       C  0.72204751  0.19554918  0.08817812     0.62500
H1144       H  0.75395037  0.17648536  0.03021325     0.13200
H1145       H  0.76626204  0.32931357  0.02408650     0.13300
C1146       C  0.79832448  0.31079012  0.96634869     0.62800
F1147       F  0.72058787  0.15377881  0.08449217    -0.22400
F1148       F  0.67747480  0.18687028  0.09398985    -0.19700
F1149       F  0.74910761  0.21753624  0.11604868    -0.19400
F1150       F  0.76936535  0.29139086  0.93890154    -0.19400
F1151       F  0.84130952  0.31614933  0.95887446    -0.19800
F1152       F  0.80374642  0.35404416  0.97154821    -0.22400
C1153       C  0.95418580  0.11790663  0.82205032    -0.05300
C1154       C  0.91237981  0.09031202  0.83935831     0.00700
C1155       C  0.89638352  0.04218353  0.84193410    -0.07900
C1156       C  0.92182197  0.02394178  0.82611879    -0.05300
C1157       C  0.96265446  0.05154775  0.80814470     0.00600
C1158       C  0.98029811  0.09971707  0.80741651    -0.07800
C1159       C  0.02693511  0.13373777  0.79271268     0.62500
H1160       H  0.96748936  0.15463480  0.82057914     0.13200
H1161       H  0.90912794  0.98729469  0.82663380     0.13300
C1162       C  0.85361904  0.00987029  0.86208287     0.62800
F1163       F  0.05125587  0.16819876  0.81608753    -0.22400
F1164       F  0.02074151  0.15314546  0.76375395    -0.19700
F1165       F  0.05343811  0.11389950  0.78502078    -0.19400
F1166       F  0.81472312  0.00671187  0.84711235    -0.19400
F1167       F  0.85806667  0.02630523  0.89474725    -0.19800
F1168       F  0.84741868  0.96592152  0.86395987    -0.22400
C1169       C  0.67490754  0.05844732  0.82085255    -0.05300
C1170       C  0.68011492  0.09086582  0.84524139     0.00700
C1171       C  0.64218411  0.09782071  0.85224811    -0.07900
C1172       C  0.60139609  0.07352907  0.83296258    -0.05300
C1173       C  0.59646317  0.04158456  0.80775097     0.00600
C1174       C  0.63380162  0.03252512  0.80291487    -0.07800
C1175       C  0.63356678  0.99538973  0.78087406     0.62500
H1176       H  0.70351777  0.05236048  0.81607895     0.13200
H1177       H  0.57304906  0.08000554  0.83721684     0.13300
C1178       C  0.64380853  0.12938032  0.88055422     0.62800
F1179       F  0.66787193  0.01523261  0.75650351    -0.22400
F1180       F  0.59250938  0.96877352  0.76500219    -0.19700
F1181       F  0.64097114  0.46639032  0.80006026    -0.19400
F1182       F  0.67511366  0.17449564  0.87251521    -0.19400
F1183       F  0.65675076  0.11764366  0.91052527    -0.19800
F1184       F  0.60122052  0.12617761  0.88587670    -0.22400
C1185       C  0.94433653  0.35389146  0.85634428    -0.05300
C1186       C  0.90185904  0.31978040  0.84374223     0.00700
C1187       C  0.87983571  0.33122874  0.81805755    -0.07900
C1188       C  0.90250629  0.37634101  0.80501229    -0.05300
C1189       C  0.94766449  0.40942582  0.81482796     0.00600
C1190       C  0.96767138  0.39877673  0.84297419    -0.07800
C1191       C  0.51272692  0.43291479  0.85987432     0.62500
H1192       H  0.95910868  0.34476684  0.87728287     0.13200
H1193       H  0.88605895  0.38541915  0.78526087     0.13300
C1194       C  0.83422854  0.29541102  0.80283019     0.62800
F1195       F  0.52731714  0.41230046  0.88342141    -0.22400
F1196       F  0.50682013  0.46562067  0.87695717    -0.19700
F1197       F  0.54749124  0.45353419  0.83626367    -0.19400
F1198       F  0.79935099  0.28115198  0.82672891    -0.19400
F1199       F  0.83779691  0.25804598  0.79192005    -0.19800
F1200       F  0.82191447  0.31242652  0.77525521    -0.22400
Zn1201     Zn  0.89819998  0.70013278  0.89157135     1.49700
Zn1202     Zn  0.79923007  0.69826951  0.89812872     1.49400
Zn1203     Zn  0.80213378  0.60311392  0.89261273     1.49100
Zn1204     Zn  0.83680506  0.66500714  0.95713204     1.49500
O1205       O  0.83422068  0.66678543  0.90869942    -1.83600
O1206       O  0.90692223  0.75647713  0.86551303    -0.74300
O1207       O  0.74049691  0.65573564  0.87258185    -0.74100
O1208       O  0.84563880  0.59055519  0.86388783    -0.73600
O1209       O  0.83961907  0.75517181  0.87070924    -0.74300
O1210       O  0.91224419  0.65632914  0.86364224    -0.73900
O1211       O  0.74461783  0.59182234  0.86730325    -0.74500
O1212       O  0.80600701  0.60411498  0.97540310    -0.73800
O1213       O  0.78069029  0.72026980  0.94057753    -0.74600
O1214       O  0.78019841  0.55676126  0.93160953    -0.74000
O1215       O  0.80937460  0.69626495  0.98080974    -0.74500
O1216       O  0.89840867  0.69318216  0.97443951    -0.74400
O1217       O  0.94512310  0.72467975  0.93054027    -0.74200
C1218       C  0.88136084  0.77440211  0.86040339     0.77600
C1219       C  0.72355753  0.61442555  0.86234215     0.78100
C1220       C  0.88834666  0.61368607  0.85591053     0.77100
C1221       C  0.78488741  0.56405908  0.96340820     0.77500
C1222       C  0.78815694  0.71678450  0.97174693     0.78600
C1223       C  0.93840380  0.71717329  0.96228125     0.77600
Zn1224     Zn  0.83302981  0.66619666  0.67923108     1.49700
Zn1225     Zn  0.85960380  0.72997693  0.61213824     1.49400
Zn1226     Zn  0.87077095  0.64049937  0.61197286     1.49100
Zn1227     Zn  0.77186714  0.63070649  0.61105479     1.49500
O1228       O  0.83409472  0.66702354  0.62931573    -1.83600
O1229       O  0.86433725  0.73423969  0.69644741    -0.74300
O1230       O  0.91570374  0.74787031  0.58362904    -0.74100
O1231       O  0.89209570  0.61505883  0.64957754    -0.73600
O1232       O  0.87622845  0.77600589  0.64978275    -0.74300
O1233       O  0.86696900  0.63156775  0.69699027    -0.73900
O1234       O  0.92496418  0.68680519  0.58557531    -0.74500
O1235       O  0.76501130  0.57967980  0.58149511    -0.73800
O1236       O  0.81731859  0.73602407  0.57945610    -0.74600
O1237       O  0.83603619  0.59098368  0.57737137    -0.74000
O1238       O  0.75604949  0.66647515  0.57885089    -0.74500
O1239       O  0.72445234  0.60622616  0.64750813    -0.74400
O1240       O  0.76456114  0.63142497  0.69525146    -0.74200
C1241       C  0.87785272  0.77314279  0.68184496     0.77600
C1242       C  0.93706552  0.72691265  0.57491149     0.78100
C1243       C  0.88812947  0.61340270  0.68176814     0.77100
C1244       C  0.79414873  0.57079683  0.56783012     0.77500
C1245       C  0.77785474  0.70733263  0.56786737     0.78600
C1246       C  0.72595323  0.60963415  0.67962664     0.77600
C1247       C  0.49793665  0.49332758  0.73765246     0.46000
H1248       H  0.49439018  0.48912787  0.71003537    -0.03100
C1249       C  0.50252794  0.50060701  0.80322876     0.46000
H1250       H  0.50562305  0.00589162  0.83197055    -0.03100
C1251       C  0.54848279  0.51745896  0.75088936    -0.16800
C1252       C  0.97726863  0.52278283  0.75155980    -0.16500
C1253       C  0.97434003  0.94686813  0.75751477    -0.16900
C1254       C  0.55061929  0.51946193  0.78601752    -0.16900
C1255       C  0.98043108  0.52672780  0.78634710    -0.16400
C1256       C  0.97533581  0.95106000  0.79249532    -0.16700
Zn1257     Zn  0.67280435  0.83569720  0.45489254     1.49700
Zn1258     Zn  0.60216151  0.80367419  0.39368335     1.49400
Zn1259     Zn  0.69950045  0.89779578  0.39070606     1.49100
Zn1260     Zn  0.69788285  0.80049552  0.38948241     1.49500
O1261       O  0.66771037  0.83410813  0.40627499    -1.83600
O1262       O  0.61352543  0.81531457  0.47695495    -0.74300
O1263       O  0.58860505  0.84781844  0.36713539    -0.74100
O1264       O  0.72606078  0.94291041  0.42971541    -0.73600
O1265       O  0.56142708  0.78532179  0.43605538    -0.74300
O1266       O  0.71519684  0.89675284  0.47316181    -0.73900
O1267       O  0.65628815  0.91253611  0.36496609    -0.74500
O1268       O  0.75435007  0.84317901  0.36176444    -0.73800
O1269       O  0.58557753  0.74570501  0.36614251    -0.74600
O1270       O  0.75370864  0.90915074  0.36171504    -0.74000
O1271       O  0.65226870  0.74585888  0.36206701    -0.74500
O1272       O  0.71905125  0.77431115  0.42776412    -0.74400
O1273       O  0.69397133  0.79519759  0.47271667    -0.74200
C1274       C  0.57193948  0.79405563  0.46726852     0.77600
C1275       C  0.61337745  0.88974401  0.35811698     0.78100
C1276       C  0.73161022  0.93658202  0.46074121     0.77100
C1277       C  0.77223414  0.88525517  0.35322351     0.77500
C1278       C  0.60913789  0.72740282  0.35587235     0.78600
C1279       C  0.71312148  0.77442764  0.45966495     0.77600
Zn1280     Zn  0.69830732  0.80449460  0.14910243     1.49700
Zn1281     Zn  0.69638357  0.90014909  0.14502028     1.49400
Zn1282     Zn  0.66951719  0.83522342  0.08270174     1.49100
Zn1283     Zn  0.60031701  0.80247190  0.14394711     1.49500
O1284       O  0.66593261  0.83535670  0.13124844    -1.83600
O1285       O  0.75278184  0.85006480  0.17787523    -0.74300
O1286       O  0.71896464  0.94430736  0.10503598    -0.74100
O1287       O  0.69990121  0.80317411  0.06597365    -0.73600
O1288       O  0.75226149  0.91598972  0.17351541    -0.74300
O1289       O  0.72591294  0.78383785  0.11085957    -0.73900
O1290       O  0.70412896  0.89546678  0.06286587    -0.74500
O1291       O  0.55890936  0.78298385  0.10190005    -0.73800
O1292       O  0.65201134  0.91239180  0.17087563    -0.74600
O1293       O  0.61031105  0.80843472  0.06018632    -0.74000
O1294       O  0.58608741  0.84570858  0.17108272    -0.74500
O1295       O  0.58504735  0.74403764  0.17060925    -0.74400
O1296       O  0.65253917  0.74645931  0.17480117    -0.74200
C1297       C  0.77074224  0.89305052  0.18404628     0.77600
C1298       C  0.72031071  0.93589006  0.07373863     0.78100
C1299       C  0.72227709  0.78579827  0.07884425     0.77100
C1300       C  0.56898833  0.78842390  0.07040044     0.77500
C1301       C  0.60952518  0.88833066  0.17869801     0.78600
C1302       C  0.60892657  0.72594963  0.18031709     0.78200
C1303       C  0.50228864  0.50066338  0.23620716     0.46000
H1304       H  0.50462970  0.50165777  0.20831083    -0.03100
C1305       C  0.49971625  0.50215145  0.30203640     0.46000
H1306       H  0.49786182  0.50297619  0.32967396    -0.03100
C1307       C  0.95125363  0.98069230  0.24945541    -0.16800
C1308       C  0.51941893  0.97168355  0.25325546    -0.16500
C1309       C  0.52922307  0.54952322  0.25135420    -0.16900
C1310       C  0.94983167  0.98124261  0.28450043    -0.16900
C1311       C  0.51958460  0.97359889  0.28834291    -0.16400
C1312       C  0.52806887  0.55049064  0.28621300    -0.16700
C1313       C  0.61563545  0.66657411  0.21386076    -0.05300
C1314       C  0.58638632  0.67972042  0.19776583     0.00700
C1315       C  0.53800957  0.64717499  0.19697638    -0.07900
C1316       C  0.52142214  0.60413254  0.21316741    -0.05300
C1317       C  0.55093168  0.59204665  0.22980720     0.00600
C1318       C  0.59914210  0.62311038  0.22876961    -0.07800
C1319       C  0.63510415  0.61209901  0.24192695     0.62500
H1320       H  0.65253959  0.69027069  0.21424860     0.13200
H1321       H  0.98454589  0.57977759  0.21435621     0.13300
C1322       C  0.50362453  0.65676120  0.17887092     0.62800
F1323       F  0.65649416  0.63912390  0.26992422    -0.22400
F1324       F  0.66801318  0.62163119  0.21701456    -0.19700
F1325       F  0.61672411  0.56656987  0.25056762    -0.19400
F1326       F  0.51648067  0.66681400  0.14528514    -0.19400
F1327       F  0.50224261  0.69323191  0.19412510    -0.19800
F1328       F  0.95921155  0.61944607  0.18005258    -0.22400
C1329       C  0.84982329  0.90651083  0.18932306    -0.05300
C1330       C  0.81679328  0.91765173  0.20056808     0.00700
C1331       C  0.82972379  0.95320778  0.22472061    -0.07900
C1332       C  0.87555628  0.97597658  0.23678771    -0.05300
C1333       C  0.90809494  0.96248800  0.22766382     0.00600
C1334       C  0.89521189  0.92812759  0.20196577    -0.07800
C1335       C  0.92748592  0.91271251  0.18753203     0.62500
H1336       H  0.83957573  0.88057094  0.16979904     0.13200
H1337       H  0.88577736  0.00339181  0.25495945     0.13300
C1338       C  0.79485842  0.96526345  0.23935838     0.62800
F1339       F  0.90521094  0.87531950  0.16604949    -0.22400
F1340       F  0.94539177  0.89949859  0.21341027    -0.19700
F1341       F  0.96235279  0.94767255  0.16901754    -0.19400
F1342       F  0.75647803  0.92583498  0.25101046    -0.19400
F1343       F  0.78153599  0.98564900  0.21483775    -0.19800
F1344       F  0.81289563  0.99550254  0.26632894    -0.22400
C1345       C  0.55282226  0.88386813  0.22099509    -0.05300
C1346       C  0.58655385  0.91028730  0.19693473     0.00700
C1347       C  0.59527473  0.95539104  0.18960429    -0.07900
C1348       C  0.57091999  0.97273147  0.20776258    -0.05300
C1349       C  0.53839375  0.94699691  0.23283918     0.00600
C1350       C  0.52753887  0.90062050  0.23846450    -0.07800
C1351       C  0.98848650  0.86606206  0.26055373     0.62500
H1352       H  0.54545006  0.84905337  0.22588789     0.13200
H1353       H  0.58174708  0.50955442  0.20422976     0.13300
C1354       C  0.62900005  0.98496516  0.16217005     0.62800
F1355       F  0.96051330  0.82757225  0.24136932    -0.22400
F1356       F  0.96090902  0.88220577  0.27357528    -0.19700
F1357       F  0.00641825  0.85285772  0.28696504    -0.19400
F1358       F  0.61830317  0.96057045  0.13215229    -0.19400
F1359       F  0.67365267  0.99769483  0.17161656    -0.19800
F1360       F  0.63387857  0.52925932  0.15942255    -0.22400
C1361       C  0.84726397  0.95499507  0.34240338    -0.05300
C1362       C  0.81714492  0.90843072  0.33490244     0.00700
C1363       C  0.83078672  0.88613914  0.31069780    -0.07900
C1364       C  0.87511158  0.91086467  0.29624860    -0.05300
C1365       C  0.90540939  0.95736477  0.30394456     0.00600
C1366       C  0.89085739  0.98025148  0.32690161    -0.07800
C1367       C  0.92077904  0.53018095  0.33446991     0.62500
H1368       H  0.83632250  0.97168673  0.36078067     0.13200
H1369       H  0.88643622  0.89415598  0.27819054     0.13300
C1370       C  0.79841960  0.83733093  0.29889186     0.62800
F1371       F  0.89642644  0.54604125  0.35332781    -0.22400
F1372       F  0.93279441  0.55378835  0.30416702    -0.19700
F1373       F  0.96006177  0.54003387  0.35238446    -0.19400
F1374       F  0.75629177  0.83276424  0.28984174    -0.19400
F1375       F  0.79196813  0.80665334  0.32452616    -0.19800
F1376       F  0.81583742  0.82585265  0.27091272    -0.22400
C1377       C  0.60124354  0.65095011  0.34645776    -0.05300
C1378       C  0.58619552  0.68210450  0.33818109     0.00700
C1379       C  0.55083123  0.66915965  0.31377040    -0.07900
C1380       C  0.53249967  0.62567900  0.29828623    -0.05300
C1381       C  0.54779584  0.59449446  0.30626750     0.00600
C1382       C  0.58257992  0.60723254  0.33134637    -0.07800
C1383       C  0.60108678  0.57600935  0.34228834     0.62500
H1384       H  0.62766598  0.66106130  0.36560998     0.13200
H1385       H  0.00542602  0.61528984  0.27971242     0.13300
C1386       C  0.53318084  0.70123088  0.30330092     0.62800
F1387       F  0.63907134  0.59833080  0.36329662    -0.22400
F1388       F  0.61476064  0.56090184  0.31449175    -0.19700
F1389       F  0.56760021  0.53886437  0.35991867    -0.19400
F1390       F  0.56984429  0.74332041  0.29375974    -0.19400
F1391       F  0.50978328  0.70720666  0.33007887    -0.19800
F1392       F  0.00262447  0.68359670  0.27630653    -0.22400
C1393       C  0.54941170  0.90689737  0.35427785    -0.05300
C1394       C  0.59116792  0.91313846  0.34088488     0.00700
C1395       C  0.61077217  0.94192638  0.31235300    -0.07900
C1396       C  0.58815144  0.96416117  0.29878440    -0.05300
C1397       C  0.54436759  0.95545282  0.31024057     0.00600
C1398       C  0.52522239  0.92715870  0.33961947    -0.07800
C1399       C  0.97926073  0.91664964  0.35596618     0.62500
H1400       H  0.53589143  0.88583926  0.37674432     0.13200
H1401       H  0.60408309  0.98758387  0.27787878     0.13300
C1402       C  0.65365170  0.94688740  0.29471194     0.62800
F1403       F  0.96329406  0.88034516  0.37857540    -0.22400
F1404       F  0.94557775  0.90483184  0.33192503    -0.19700
F1405       F  0.98496667  0.95449977  0.37387986    -0.19400
F1406       F  0.64793875  0.90384855  0.28802428    -0.19400
F1407       F  0.69195770  0.97118005  0.31499158    -0.19800
F1408       F  0.66195821  0.96992716  0.26412682    -0.22400
C1409       C  0.73393325  0.00308670  0.48759207    -0.05300
C1410       C  0.75421023  0.97550202  0.48407834     0.00700
C1411       C  0.78852085  0.97999634  0.50722009    -0.07900
C1412       C  0.79981262  0.50984373  0.53633236    -0.05300
C1413       C  0.77951465  0.53770587  0.53938201     0.00600
C1414       C  0.74809520  0.53544878  0.51409933    -0.07800
C1415       C  0.72766026  0.56717188  0.51397088     0.62500
H1416       H  0.70772345  0.99882385  0.46954111     0.13200
H1417       H  0.82480506  0.51302637  0.55512634     0.13300
C1418       C  0.81647199  0.95569665  0.50335025     0.62800
F1419       F  0.70349288  0.56292239  0.48447157    -0.22400
F1420       F  0.76260028  0.61240623  0.51639118    -0.19700
F1421       F  0.69725378  0.55662893  0.54082631    -0.19400
F1422       F  0.80817041  0.93183285  0.47319562    -0.19400
F1423       F  0.80643985  0.92536751  0.52995511    -0.19800
F1424       F  0.86304953  0.98793496  0.50419629    -0.22400
C1425       C  0.54499057  0.75854955  0.52294679    -0.05300
C1426       C  0.53637659  0.77749222  0.49402576     0.00700
C1427       C  0.49703713  0.78296798  0.49293953    -0.07900
C1428       C  0.96487272  0.76572378  0.51996322    -0.05300
C1429       C  0.97394275  0.74776914  0.54927562     0.00600
C1430       C  0.01563992  0.74673971  0.55196320    -0.07800
C1431       C  0.02834559  0.73022824  0.58386228     0.62500
H1432       H  0.57565724  0.75516004  0.52342835     0.13200
H1433       H  0.93265346  0.76615452  0.51850340     0.13300
C1434       C  0.48778744  0.80564288  0.46303690     0.62800
F1435       F  0.07423048  0.74118684  0.58355268    -0.22400
F1436       F  0.00143548  0.68304705  0.58656447    -0.19700
F1437       F  0.02145292  0.75067501  0.61209973    -0.19400
F1438       F  0.47864176  0.77854452  0.43448740    -0.19400
F1439       F  0.52592412  0.84833370  0.45701166    -0.19800
F1440       F  0.45023407  0.81178302  0.46886946    -0.22400
C1441       C  0.79044253  0.74907698  0.51411464    -0.05300
C1442       C  0.75899364  0.72109876  0.53922177     0.00700
C1443       C  0.71141559  0.70676286  0.53583625    -0.07900
C1444       C  0.69744156  0.72251018  0.50777468    -0.05300
C1445       C  0.72914419  0.75146558  0.48325507     0.00600
C1446       C  0.77632582  0.76467731  0.48607624    -0.07800
C1447       C  0.81179151  0.79675589  0.46049001     0.62500
H1448       H  0.82652023  0.75894761  0.51677123     0.13200
H1449       H  0.66156365  0.71345527  0.50519264     0.13300
C1450       C  0.67580850  0.67685242  0.56225040     0.62800
F1451       F  0.85611971  0.80680257  0.46882260    -0.22400
F1452       F  0.81115950  0.83766040  0.45913533    -0.19700
F1453       F  0.80163732  0.77643296  0.42881736    -0.19400
F1454       F  0.68999466  0.69589982  0.59411818    -0.19400
F1455       F  0.67033871  0.63320091  0.56179626    -0.19800
F1456       F  0.63302736  0.67271753  0.55621993    -0.22400
C1457       C  0.90939019  0.53438841  0.74079295    -0.05300
C1458       C  0.95384902  0.54354759  0.73055571     0.00700
C1459       C  0.97586673  0.57585576  0.70375631    -0.07900
C1460       C  0.95288383  0.59744335  0.68911142    -0.05300
C1461       C  0.90988033  0.59016375  0.70079475     0.00600
C1462       C  0.88793949  0.55838447  0.72755174    -0.07800
C1463       C  0.84203897  0.54958690  0.74205871     0.62500
H1464       H  0.89191249  0.50887156  0.76031931     0.13200
H1465       H  0.96899125  0.62134301  0.66836385     0.13300
C1466       C  0.02395556  0.58954993  0.69086900     0.62800
F1467       F  0.82560741  0.51591611  0.76683529    -0.22400
F1468       F  0.80945046  0.53552294  0.71658235    -0.19700
F1469       F  0.84730259  0.58943937  0.75664187    -0.19400
F1470       F  0.04271583  0.12807478  0.67051873    -0.19400
F1471       F  0.52358108  0.55296393  0.67490351    -0.19800
F1472       F  0.05447096  0.60395912  0.71744013    -0.22400
C1473       C  0.64564966  0.54504580  0.68554351    -0.05300
C1474       C  0.68096795  0.58713358  0.69820518     0.00700
C1475       C  0.67087101  0.60799140  0.72559287    -0.07900
C1476       C  0.62579521  0.58590417  0.73906148    -0.05300
C1477       C  0.59132839  0.54168005  0.72869780     0.00600
C1478       C  0.60121753  0.52130405  0.70041157    -0.07800
C1479       C  0.56656689  0.47510817  0.68521690     0.62500
H1480       H  0.65347755  0.53036591  0.66377175     0.13200
H1481       H  0.61759907  0.60262128  0.75914016     0.13300
C1482       C  0.70724898  0.65322737  0.74079541     0.62800
F1483       F  0.58812427  0.45745497  0.66501169    -0.22400
F1484       F  0.53551770  0.48006006  0.66516178    -0.19700
F1485       F  0.54409449  0.94434891  0.71133503    -0.19400
F1486       F  0.72625725  0.68647508  0.71582630    -0.19400
F1487       F  0.74158857  0.64745002  0.75551247    -0.19800
F1488       F  0.68906434  0.66892085  0.76568159    -0.22400
C1489       C  0.91696487  0.89549784  0.71441745    -0.05300
C1490       C  0.95028390  0.90125617  0.73863820     0.00700
C1491       C  0.95798166  0.86326961  0.74423157    -0.07900
C1492       C  0.93127880  0.82181368  0.72666066    -0.05300
C1493       C  0.89908793  0.81664348  0.70212604     0.00600
C1494       C  0.89150877  0.85416098  0.69586504    -0.07800
C1495       C  0.85686277  0.85103005  0.66969118     0.62500
H1496       H  0.91105676  0.92401765  0.70996053     0.13200
H1497       H  0.93765299  0.79348317  0.73091062     0.13300
C1498       C  0.49501158  0.86365548  0.76623799     0.62800
F1499       F  0.84619566  0.88574413  0.67379839    -0.22400
F1500       F  0.81619032  0.80953591  0.67255796    -0.19700
F1501       F  0.87516302  0.85481672  0.63756446    -0.19400
F1502       F  0.52093582  0.90404627  0.78296453    -0.19400
F1503       F  0.52457777  0.85563635  0.74634720    -0.19800
F1504       F  0.47459632  0.82888968  0.78999738    -0.22400
C1505       C  0.97346328  0.70625197  0.01295303    -0.05300
C1506       C  0.97606291  0.73622642  0.98710364     0.00700
C1507       C  0.50832718  0.78417541  0.98900225    -0.07900
C1508       C  0.53701082  0.80014928  0.01765827    -0.05300
C1509       C  0.53325610  0.77034454  0.04407835     0.00600
C1510       C  0.00072869  0.72225305  0.04209187    -0.07800
C1511       C  0.99615518  0.68880148  0.06964972     0.62500
H1512       H  0.94851781  0.67001887  0.01056006     0.13200
H1513       H  0.56265447  0.83620154  0.01977634     0.13300
C1514       C  0.51074581  0.81781300  0.96226124     0.62800
F1515       F  0.96471034  0.64382608  0.06121551    -0.22400
F1516       F  0.98106012  0.69948718  0.09918379    -0.19700
F1517       F  0.53827061  0.69209038  0.07504283    -0.19400
F1518       F  0.96603187  0.81368868  0.96027118    -0.19400
F1519       F  0.52401526  0.80796621  0.93154402    -0.19800
F1520       F  0.54228253  0.86277737  0.97066924    -0.22400
C1521       C  0.73851282  0.53189321  0.01426046    -0.05300
C1522       C  0.76471077  0.52693543  0.98837402     0.00700
C1523       C  0.77745293  0.49274962  0.99079112    -0.07900
C1524       C  0.77211035  0.97146722  0.02556923    -0.05300
C1525       C  0.74000174  0.97233466  0.04826090     0.00600
C1526       C  0.72111209  0.00105575  0.04188781    -0.07800
C1527       C  0.68442731  0.00100570  0.06472643     0.62500
H1528       H  0.72975863  0.55886747  0.01197453     0.13200
H1529       H  0.78493480  0.94802573  0.03048179     0.13300
C1530       C  0.80769199  0.48791419  0.96430440     0.62800
F1531       F  0.68396891  0.54277167  0.06090643    -0.22400
F1532       F  0.70227413  0.01529038  0.09683436    -0.19700
F1533       F  0.64668228  0.95714088  0.06632491    -0.19400
F1534       F  0.84952848  0.52836356  0.96268431    -0.19400
F1535       F  0.78602400  0.47865192  0.93317222    -0.19800
F1536       F  0.83589538  0.96762388  0.98378302    -0.22400
C1537       C  0.75566431  0.71005950  0.02897156    -0.05300
C1538       C  0.77219571  0.73591422  0.99889551     0.00700
C1539       C  0.77726554  0.78025730  0.99715357    -0.07900
C1540       C  0.76337744  0.79618417  0.02520370    -0.05300
C1541       C  0.74461238  0.76940214  0.05459365     0.00600
C1542       C  0.74169789  0.72606791  0.05705636    -0.07800
C1543       C  0.72270815  0.69636398  0.08850429     0.62500
H1544       H  0.75314756  0.67661934  0.03010243     0.13200
H1545       H  0.76582255  0.82960334  0.02403411     0.13300
C1546       C  0.79774316  0.81098480  0.96628627     0.62800
F1547       F  0.72175131  0.65481030  0.08497657    -0.22400
F1548       F  0.67808768  0.68724137  0.09477483    -0.19700
F1549       F  0.75024184  0.71898213  0.11603576    -0.19400
F1550       F  0.76847596  0.79205511  0.93894048    -0.19400
F1551       F  0.84037687  0.81565360  0.95852671    -0.19800
F1552       F  0.80397986  0.85451792  0.97172618    -0.22400
C1553       C  0.95170982  0.61744707  0.81940526    -0.05300
C1554       C  0.91147368  0.59033066  0.83849902     0.00700
C1555       C  0.89741258  0.54291042  0.84314107    -0.07900
C1556       C  0.92223451  0.52435451  0.82679045    -0.05300
C1557       C  0.96141272  0.55134344  0.80695963     0.00600
C1558       C  0.97792191  0.59928994  0.80482072    -0.07800
C1559       C  0.02374559  0.63319282  0.78895636     0.62500
H1560       H  0.96386818  0.65385730  0.81667546     0.13200
H1561       H  0.91045969  0.48794967  0.82865139     0.13300
C1562       C  0.85791184  0.51208233  0.86651613     0.62800
F1563       F  0.04824851  0.66906470  0.81126216    -0.22400
F1564       F  0.01609236  0.65065310  0.75953086    -0.19700
F1565       F  0.05080066  0.61379623  0.78175475    -0.19400
F1566       F  0.81641754  0.50459438  0.85327753    -0.19400
F1567       F  0.86515192  0.53286879  0.89782280    -0.19800
F1568       F  0.85481142  0.46972004  0.87119316    -0.22400
C1569       C  0.67341803  0.55843366  0.81975331    -0.05300
C1570       C  0.67880363  0.59146445  0.84367029     0.00700
C1571       C  0.64092608  0.59870209  0.85022423    -0.07900
C1572       C  0.59991878  0.57369916  0.83124127    -0.05300
C1573       C  0.59483087  0.54111650  0.80653158     0.00600
C1574       C  0.63230110  0.53218908  0.80188228    -0.07800
C1575       C  0.63238340  0.49508228  0.77997619     0.62500
H1576       H  0.70199414  0.55222986  0.81519922     0.13200
H1577       H  0.57154492  0.58020942  0.83522831     0.13300
C1578       C  0.64290260  0.63153453  0.87760996     0.62800
F1579       F  0.66706496  0.51499376  0.75587737    -0.22400
F1580       F  0.59162519  0.46853000  0.76373477    -0.19700
F1581       F  0.64243995  0.96673515  0.80077049    -0.19400
F1582       F  0.67450484  0.67619308  0.86864268    -0.19400
F1583       F  0.65570670  0.62087668  0.90809091    -0.19800
F1584       F  0.60052037  0.62898675  0.88242905    -0.22400
C1585       C  0.94508886  0.85427111  0.85713309    -0.05300
C1586       C  0.90216940  0.82071371  0.84472219     0.00700
C1587       C  0.88019360  0.83286303  0.81945173    -0.07900
C1588       C  0.90342895  0.87791581  0.80639029    -0.05300
C1589       C  0.94888496  0.91033160  0.81596889     0.00600
C1590       C  0.96880662  0.89922434  0.84390500    -0.07800
C1591       C  0.51394353  0.93324002  0.86054214     0.62500
H1592       H  0.95985819  0.84469464  0.87780447     0.13200
H1593       H  0.88707941  0.88751225  0.78690329     0.13300
C1594       C  0.83377465  0.79790788  0.80483221     0.62800
F1595       F  0.52804807  0.91219154  0.88407823    -0.22400
F1596       F  0.50867861  0.96631472  0.87766342    -0.19700
F1597       F  0.54874459  0.95347062  0.83690577    -0.19400
F1598       F  0.79958792  0.78554608  0.82909962    -0.19400
F1599       F  0.83534462  0.75931003  0.79432618    -0.19800
F1600       F  0.82195894  0.81514050  0.77712407    -0.22400
loop_ 
_geom_bond_atom_site_label_1 
_geom_bond_atom_site_label_2 
_geom_bond_distance 
_geom_bond_site_symmetry_2 
_ccdc_geom_bond_type 
Zn1           O5   1.969       .  S
Zn1           O6   2.046       .  S
Zn1          O10   2.061       .  S
Zn1          O17   2.057       .  S
Zn2           O5   1.967       .  S
Zn2           O7   2.023       .  S
Zn2           O9   2.018       .  S
Zn2          O13   2.038       .  S
Zn3           O5   1.959       .  S
Zn3           O8   2.033       .  S
Zn3          O11   2.026       .  S
Zn3          O14   2.048       .  S
Zn4           O5   1.914       .  S
Zn4          O12   1.917       .  S
Zn4          O15   1.932       .  S
Zn4          O16   1.908       .  S
O6           C18   1.281       .  A
O7           C19   1.274       .  A
O8           C20   1.275       .  A
O9           C18   1.274       .  A
O10          C20   1.281       .  A
O11          C19   1.279       .  A
O12          C21   1.259       .  A
O13          C22   1.273       .  A
O14          C21   1.273       .  A
O15          C22   1.260       .  A
O16          C23   1.259       .  A
O17          C23   1.275       .  A
C18         C386   1.487       .  S
C19         C370   1.490       .  S
C20         C354   1.507       .  S
C21         C322   1.461       .  S
C22         C338   1.472       .  S
C23         C306   1.468       .  S
Zn24         O28   1.969       .  S
Zn24         O29   2.091       .  S
Zn24         O33   2.102       .  S
Zn24         O40   2.074       .  S
Zn25         O28   1.965       .  S
Zn25         O30   2.004       .  S
Zn25         O32   2.007       .  S
Zn25         O36   2.002       .  S
Zn26         O28   1.947       .  S
Zn26         O31   2.007       .  S
Zn26         O34   1.977       .  S
Zn26         O37   2.003       .  S
Zn27         O28   1.949       .  S
Zn27         O35   1.986       .  S
Zn27         O38   1.987       .  S
Zn27         O39   1.981       .  S
O29          C41   1.285       .  A
O30          C42   1.272       .  A
O31          C43   1.274       .  A
O32          C41   1.272       .  A
O33          C43   1.284       .  A
O34          C42   1.266       .  A
O35          C44   1.266       .  A
O36          C45   1.270       .  A
O37          C44   1.270       .  A
O38          C45   1.266       .  A
O39          C46   1.271       .  A
O40          C46   1.281       .  A
C41         C293   1.497       .  S
C42         C229   1.486       .  S
C43         C261   1.501       .  S
C44         C213   1.481       .  S
C45         C242   1.478       .  S
C46         C274   1.489       .  S
C47          H48   1.099       .  S
C47          C51   1.555   1_665  S
C47        C1253   1.566       .  S
C47         C852   1.556   1_565  S
C49         H450   1.100       .  S
C49          C54   1.553       .  S
C49         C855   1.543   1_455  S
C49        C1256   1.543   1_445  S
H50         C449   1.100       .  S
C51          C54   1.388       .  D
C51         C277   1.517       .  S
C52         C847   1.555   1_545  S
C52          C55   1.377       .  D
C52         C258   1.522       .  S
C53        C1247   1.567       .  S
C53          C56   1.386       .  D
C53         C290   1.524       .  S
C54         C373   1.515       .  S
C55         C849   1.542       .  S
C55         C357   1.500       .  S
C56        C1249   1.546       .  S
C56         C389   1.521       .  S
Zn57         O61   1.928       .  S
Zn57         O62   1.948       .  S
Zn57         O66   1.957       .  S
Zn57         O73   1.946       .  S
Zn58         O61   1.965       .  S
Zn58         O63   2.041       .  S
Zn58         O65   2.040       .  S
Zn58         O69   2.042       .  S
Zn59         O61   1.957       .  S
Zn59         O64   2.036       .  S
Zn59         O67   2.030       .  S
Zn59         O70   2.003       .  S
Zn60         O61   1.965       .  S
Zn60         O68   2.017       .  S
Zn60         O71   2.019       .  S
Zn60         O72   2.041       .  S
O62          C74   1.264       .  A
O63          C75   1.278       .  A
O64          C76   1.274       .  A
O65          C74   1.275       .  A
O66          C76   1.263       .  A
O67          C75   1.275       .  A
O68          C77   1.274       .  A
O69          C78   1.277       .  A
O70          C77   1.274       .  A
O71          C78   1.276       .  A
O72          C79   1.272       .  A
O73          C79   1.263       .  A
C74         C226   1.462       .  S
C75         C194   1.489       .  S
C76         C210   1.468       .  S
C77         C162   1.484       .  S
C78         C178   1.491       .  S
C79         C245   1.469       .  S
Zn80         O84   1.962       .  S
Zn80         O85   2.044       .  S
Zn80         O89   2.051       .  S
Zn80         O96   2.048       .  S
Zn81         O84   1.965       .  S
Zn81         O86   2.036       .  S
Zn81         O88   2.015       .  S
Zn81         O92   2.000       .  S
Zn82         O84   1.915       .  S
Zn82         O87   1.914       .  S
Zn82         O90   1.923       .  S
Zn82         O93   1.924       .  S
Zn83         O84   1.961       .  S
Zn83         O91   2.053       .  S
Zn83         O94   2.032       .  S
Zn83         O95   2.055       .  S
O85          C97   1.280       .  A
O86          C98   1.272       .  A
O87          C99   1.261       .  A
O88          C97   1.273       .  A
O89          C99   1.274       .  A
O90          C98   1.259       .  A
O91         C100   1.275       .  A
O92         C101   1.271       .  A
O93         C100   1.259       .  A
O94         C101   1.279       .  A
O95         C102   1.278       .  A
O96         C102   1.281       .  A
C97         C130   1.489       .  S
C98         C325   1.466       .  S
C99         C341   1.471       .  S
C100        C309   1.466       .  S
C101        C146   1.483       .  S
C102        C114   1.513       .  S
C103        H104   1.101       .  S
C103        C109   1.544       .  S
C103        C508   1.554   1_545  S
C103       C1307   1.538   1_445  S
C105        H106   1.093       .  S
C105        C112   1.545   1_655  S
C105        C511   1.543   1_645  S
C105       C1310   1.554   1_545  S
C107       C1303   1.538       .  S
C107        C110   1.383       .  D
C107        C133   1.523       .  S
C108        C503   1.554       .  S
C108        C111   1.385       .  D
C108        C149   1.497       .  S
C109        C112   1.376       .  D
C109        C117   1.502       .  S
C110       C1305   1.554       .  S
C110        C165   1.494       .  S
C111        C505   1.545   1_455  S
C111        C197   1.522       .  S
C112        C181   1.505       .  S
C113        C114   1.409       .  A
C113        C118   1.407       .  A
C113        H120   1.084       .  S
C114        C115   1.431       .  A
C115        C116   1.416       .  A
C115        C122   1.518       .  S
C116        C117   1.402       .  A
C116        H921   1.084   1_455  S
C117        C118   1.417       .  A
C118        C119   1.514       .  S
C119        F123   1.383       .  S
C119        F124   1.384       .  S
C119        F125   1.376       .  S
H121        C916   1.084       .  S
C122        F126   1.381       .  S
C122        F127   1.383       .  S
C122        F928   1.385   1_455  S
F128        C922   1.385       .  S
C129        C130   1.398       .  A
C129        C134   1.408       .  A
C129        H136   1.082       .  S
C130        C131   1.416       .  A
C131        C132   1.412       .  A
C131        C138   1.519       .  S
C132        C133   1.412       .  A
C132        H137   1.079       .  S
C133        C134   1.430       .  A
C134        C135   1.514       .  S
C135        F139   1.385       .  S
C135        F140   1.365       .  S
C135        F141   1.380       .  S
C138        F142   1.384       .  S
C138        F143   1.382       .  S
C138        F144   1.385       .  S
C145        C146   1.398       .  A
C145        C150   1.400       .  A
C145        H152   1.085       .  S
C146        C147   1.422       .  A
C147        C148   1.405       .  A
C147        C154   1.518       .  S
C148        C149   1.401       .  A
C148        H553   1.081       .  S
C149        C150   1.428       .  A
C150        C951   1.519   1_455  S
C151        C950   1.519       .  S
C151        F155   1.384       .  S
C151        F156   1.374       .  S
C151        F157   1.382       .  S
H153        C548   1.081   1_545  S
C154        F158   1.380       .  S
C154        F159   1.383       .  S
C154        F560   1.385       .  S
F160        C554   1.385   1_545  S
C161        C162   1.406       .  A
C161        C166   1.404       .  A
C161        H168   1.082       .  S
C162        C163   1.417       .  A
C163        C164   1.405       .  A
C163        C170   1.520       .  S
C164        C165   1.407       .  A
C164        H169   1.082       .  S
C165        C166   1.416       .  A
C166        C567   1.518       .  S
C167        C566   1.518   1_545  S
C167        F171   1.385       .  S
C167        F172   1.380       .  S
C167        F173   1.379       .  S
C170        F174   1.384       .  S
C170        F175   1.383       .  S
C170        F176   1.385       .  S
C177        C178   1.405       .  A
C177        C182   1.409       .  A
C177        H184   1.081       .  S
C178        C179   1.417       .  A
C179        C180   1.408       .  A
C179        C186   1.519       .  S
C180        C181   1.408       .  A
C180        H985   1.077       .  S
C181        C182   1.423       .  A
C182        C183   1.520       .  S
C183        F187   1.385       .  S
C183        F188   1.375       .  S
C183        F189   1.377       .  S
H185        C980   1.077       .  S
C186        F190   1.384       .  S
C186        F191   1.382       .  S
C186        F992   1.385       .  S
F192        C986   1.385       .  S
C193        C194   1.402       .  A
C193        C198   1.414       .  A
C193        H200   1.082       .  S
C194        C195   1.414       .  A
C195        C196   1.408       .  A
C195        C202   1.521       .  S
C196        C197   1.413       .  A
C196        H201   1.079       .  S
C197        C198   1.431       .  A
C198        C999   1.521   1_455  S
C199        C998   1.521       .  S
C199        F203   1.385       .  S
C199        F204   1.373       .  S
C199        F205   1.380       .  S
C202        F206   1.384       .  S
C202        F207   1.381       .  S
C202        F208   1.385       .  S
C209        C210   1.396       .  A
C209        C614   1.403       .  A
C209        H216   1.083       .  S
C210        C211   1.417       .  A
C211        C612   1.406       .  A
C211        C218   1.521       .  S
C212        C213   1.405       .  A
C212        C611   1.403   1_545  A
C212        H217   1.083       .  S
C213        C214   1.426       .  A
C214        C609   1.403       .  A
C214        C215   1.522       .  S
C215        F219   1.385       .  S
C215        F220   1.383       .  S
C215        F221   1.383       .  S
C218        F222   1.383       .  S
C218        F223   1.382       .  S
C218        F224   1.385       .  S
C225        C226   1.398       .  A
C225       C1030   1.402       .  A
C225        H232   1.084       .  S
C226        C227   1.408       .  A
C227       C1028   1.404   1_455  A
C227        C234   1.518       .  S
C228        C229   1.412       .  A
C228       C1027   1.404       .  A
C228        H233   1.082       .  S
C229        C230   1.425       .  A
C230       C1025   1.402       .  A
C230        C231   1.523       .  S
C231        F235   1.385       .  S
C231        F236   1.383       .  S
C231        F237   1.384       .  S
C234        F238   1.383       .  S
C234        F239   1.384       .  S
C234        F240   1.384   1_455  S
C241        C242   1.408       .  A
C241        C246   1.405       .  A
C241        H248   1.083       .  S
C242        C243   1.418       .  A
C243        C244   1.403       .  A
C243        C250   1.521       .  S
C244        C245   1.403       .  A
C244        H249   1.084       .  S
C245        C246   1.412       .  A
C246        C247   1.518       .  S
C247        F251   1.385       .  S
C247        F252   1.384       .  S
C247        F253   1.383       .  S
C250        F254   1.384       .  S
C250        F255   1.383       .  S
C250        F256   1.385       .  S
C257        C258   1.412       .  A
C257        C262   1.415       .  A
C257        H264   1.082       .  S
C258        C259   1.427       .  A
C259        C260   1.414       .  A
C259        C266   1.518       .  S
C260        C261   1.405       .  A
C260        H265   1.084       .  S
C261        C262   1.416       .  A
C262        C263   1.517       .  S
C263        F267   1.384       .  S
C263        F268   1.383       .  S
C263        F269   1.383       .  S
C266        F272   1.374       .  S
C266        F670   1.385       .  S
C266       F1071   1.377       .  S
F270        C666   1.385       .  S
F271       C1066   1.377       .  S
C273        C274   1.406       .  A
C273        C278   1.411       .  A
C273        H280   1.083       .  S
C274        C275   1.413       .  A
C275        C276   1.407       .  A
C275        C282   1.520       .  S
C276        C277   1.414       .  A
C276        H281   1.079       .  S
C277        C278   1.427       .  A
C278        C279   1.523   1_545  S
C279        F283   1.385       .  S
C279        F284   1.381       .  S
C279        F685   1.375       .  S
C282        F286   1.383       .  S
C282        F287   1.383       .  S
C282        F288   1.385       .  S
F285        C679   1.375       .  S
C289        C290   1.408       .  A
C289        C294   1.418       .  A
C289        H296   1.083       .  S
C290        C291   1.437       .  A
C291        C292   1.406       .  A
C291       C1098   1.514       .  S
C292        C293   1.394       .  A
C292        H297   1.086       .  S
C293        C294   1.423       .  A
C294        C295   1.518       .  S
C295        F299   1.384       .  S
C295        F300   1.384       .  S
C295        F301   1.383       .  S
C298       C1091   1.514       .  S
C298        F302   1.362   1_655  S
C298        F303   1.384   1_655  S
C298        F304   1.383       .  S
C305        C306   1.406   1_554  A
C305        C310   1.399       .  A
C305        H312   1.084       .  S
C306       C1107   1.413       .  A
C307        C308   1.406   1_556  A
C307       C1106   1.413   1_455  A
C307        C314   1.519       .  S
C308        C309   1.407       .  A
C308        H313   1.084       .  S
C309       C1110   1.409       .  A
C310       C1109   1.409       .  A
C310        C311   1.516       .  S
C311        F315   1.384       .  S
C311        F316   1.382       .  S
C311       F1117   1.384       .  S
C314        F319   1.383       .  S
C314        F320   1.385       .  S
C314       F1118   1.384   1_455  S
F317       C1111   1.384   1_455  S
F318       C1114   1.384       .  S
C321        C322   1.403   1_554  A
C321        C726   1.399       .  A
C321        H328   1.083       .  S
C322        C323   1.410   1_545  A
C323        C724   1.400   1_556  A
C323        C330   1.513       .  S
C324        C325   1.405       .  A
C324        C723   1.400   1_554  A
C324        H329   1.084       .  S
C325        C326   1.412       .  A
C326        C721   1.399       .  A
C326        C327   1.514       .  S
C327        F332   1.382       .  S
C327        F333   1.382       .  S
C327        F731   1.385       .  S
C330        F334   1.383   1_565  S
C330        F335   1.382       .  S
C330        F736   1.385       .  S
F331        C727   1.385       .  S
F336        C730   1.385       .  S
C337        C338   1.410   1_554  A
C337        C342   1.404       .  A
C337        H344   1.083       .  S
C338        C339   1.412       .  A
C339        C340   1.400   1_556  A
C339        C346   1.520       .  S
C340        C341   1.408       .  A
C340        H345   1.084       .  S
C341        C342   1.411       .  A
C342        C343   1.518       .  S
C343        F347   1.385       .  S
C343        F348   1.383       .  S
C343        F349   1.383       .  S
C346        F350   1.383       .  S
C346        F351   1.384       .  S
C346        F352   1.385       .  S
C353        C354   1.407       .  A
C353        C358   1.409       .  A
C353        H360   1.084       .  S
C354        C355   1.430       .  A
C355        C356   1.411       .  A
C355        C362   1.516       .  S
C356        C357   1.399       .  A
C356        H361   1.083   1_545  S
C357        C358   1.419       .  A
C358        C359   1.513       .  S
C359        F363   1.384       .  S
C359        F364   1.382       .  S
C359        F365   1.377       .  S
C362        F366   1.383       .  S
C362        F367   1.380       .  S
C362        F368   1.385   1_545  S
C369        C370   1.395       .  A
C369        C374   1.399       .  A
C369        H376   1.086       .  S
C370        C371   1.421       .  A
C371        C372   1.414       .  A
C371        C378   1.519       .  S
C372        C373   1.409       .  A
C372        H377   1.082       .  S
C373        C374   1.432       .  A
C374        C375   1.514   1_545  S
C375        F379   1.383   1_565  S
C375        F380   1.362       .  S
C375        F781   1.384       .  S
C378        F382   1.382       .  S
C378        F383   1.384       .  S
C378        F384   1.385       .  S
F381        C775   1.384       .  S
C385        C386   1.399       .  A
C385        C390   1.410       .  A
C385        H392   1.083       .  S
C386        C387   1.415       .  A
C387        C388   1.411       .  A
C387        C394   1.519       .  S
C388        C389   1.412       .  A
C388        H393   1.082       .  S
C389        C390   1.432       .  A
C390       C1191   1.521       .  S
C391       C1190   1.521   1_455  S
C391        F395   1.385       .  S
C391        F396   1.381       .  S
C391        F397   1.373       .  S
C394        F398   1.382       .  S
C394        F399   1.384       .  S
C394        F400   1.385       .  S
Zn401       O405   1.970       .  S
Zn401       O406   2.043       .  S
Zn401       O410   2.064       .  S
Zn401       O417   2.056       .  S
Zn402       O405   1.971       .  S
Zn402       O407   2.030       .  S
Zn402       O409   2.018       .  S
Zn402       O413   2.042       .  S
Zn403       O405   1.960       .  S
Zn403       O408   2.039       .  S
Zn403       O411   2.029       .  S
Zn403       O414   2.049       .  S
Zn404       O405   1.916       .  S
Zn404       O412   1.916       .  S
Zn404       O415   1.936       .  S
Zn404       O416   1.914       .  S
O406        C418   1.280       .  A
O407        C419   1.274       .  A
O408        C420   1.276       .  A
O409        C418   1.274       .  A
O410        C420   1.281       .  A
O411        C419   1.279       .  A
O412        C421   1.259       .  A
O413        C422   1.273       .  A
O414        C421   1.273       .  A
O415        C422   1.261       .  A
O416        C423   1.260       .  A
O417        C423   1.275       .  A
C418        C786   1.486       .  S
C419        C770   1.493       .  S
C420        C754   1.508       .  S
C421        C722   1.463       .  S
C422        C738   1.474       .  S
C423        C706   1.469       .  S
Zn424       O428   1.970       .  S
Zn424       O429   2.096       .  S
Zn424       O433   2.108       .  S
Zn424       O440   2.078       .  S
Zn425       O428   1.966       .  S
Zn425       O430   2.000       .  S
Zn425       O432   2.014       .  S
Zn425       O436   2.001       .  S
Zn426       O428   1.956       .  S
Zn426       O431   2.013       .  S
Zn426       O434   1.991       .  S
Zn426       O437   2.013       .  S
Zn427       O428   1.952       .  S
Zn427       O435   1.987       .  S
Zn427       O438   1.993       .  S
Zn427       O439   1.984       .  S
O429        C441   1.286       .  A
O430        C442   1.271       .  A
O431        C443   1.275       .  A
O432        C441   1.273       .  A
O433        C443   1.285       .  A
O434        C442   1.269       .  A
O435        C444   1.267       .  A
O436        C445   1.270       .  A
O437        C444   1.271       .  A
O438        C445   1.267       .  A
O439        C446   1.271       .  A
O440        C446   1.282       .  A
C441        C693   1.499       .  S
C442        C629   1.472       .  S
C443        C661   1.506       .  S
C444        C613   1.480       .  S
C445        C642   1.479       .  S
C446        C674   1.492       .  S
C447        H448   1.098       .  S
C447        C853   1.567       .  S
C447       C1252   1.559       .  S
C447        C451   1.556   1_655  S
C449       C1255   1.544   1_455  S
C449        C454   1.554       .  S
C449        C856   1.545   1_455  S
C451        C454   1.388       .  D
C451        C677   1.519       .  S
C452       C1247   1.559       .  S
C452        C455   1.378       .  D
C452        C658   1.527       .  S
C453        C847   1.566       .  S
C453        C456   1.386       .  D
C453        C690   1.524       .  S
C454        C773   1.517       .  S
C455       C1249   1.545       .  S
C455        C757   1.502       .  S
C456        C849   1.544   1_565  S
C456        C789   1.518       .  S
Zn457       O461   1.922       .  S
Zn457       O462   1.944       .  S
Zn457       O466   1.957       .  S
Zn457       O473   1.949       .  S
Zn458       O461   1.964       .  S
Zn458       O463   2.042       .  S
Zn458       O465   2.043       .  S
Zn458       O469   2.048       .  S
Zn459       O461   1.953       .  S
Zn459       O464   2.029       .  S
Zn459       O467   2.018       .  S
Zn459       O470   2.008       .  S
Zn460       O461   1.957       .  S
Zn460       O468   2.025       .  S
Zn460       O471   2.020       .  S
Zn460       O472   2.045       .  S
O462        C474   1.265       .  A
O463        C475   1.278       .  A
O464        C476   1.273       .  A
O465        C474   1.275       .  A
O466        C476   1.263       .  A
O467        C475   1.273       .  A
O468        C477   1.275       .  A
O469        C478   1.278       .  A
O470        C477   1.275       .  A
O471        C478   1.277       .  A
O472        C479   1.273       .  A
O473        C479   1.263       .  A
C474        C626   1.474       .  S
C475        C594   1.487       .  S
C476        C610   1.465       .  S
C477        C562   1.486       .  S
C478        C578   1.492       .  S
C479        C645   1.470       .  S
Zn480       O484   1.962       .  S
Zn480       O485   2.044       .  S
Zn480       O489   2.055       .  S
Zn480       O496   2.047       .  S
Zn481       O484   1.964       .  S
Zn481       O486   2.034       .  S
Zn481       O488   2.012       .  S
Zn481       O492   1.996       .  S
Zn482       O484   1.918       .  S
Zn482       O487   1.920       .  S
Zn482       O490   1.924       .  S
Zn482       O493   1.932       .  S
Zn483       O484   1.962       .  S
Zn483       O491   2.052       .  S
Zn483       O494   2.035       .  S
Zn483       O495   2.053       .  S
O485        C497   1.280       .  A
O486        C498   1.272       .  A
O487        C499   1.261       .  A
O488        C497   1.272       .  A
O489        C499   1.275       .  A
O490        C498   1.259       .  A
O491        C500   1.276       .  A
O492        C501   1.271       .  A
O493        C500   1.260       .  A
O494        C501   1.279       .  A
O495        C502   1.278       .  A
O496        C502   1.281       .  A
C497        C530   1.487       .  S
C498        C725   1.463       .  S
C499        C741   1.473       .  S
C500        C709   1.468       .  S
C501        C546   1.483       .  S
C502        C514   1.512       .  S
C503        H504   1.102       .  S
C503        C509   1.545       .  S
C503        C907   1.538   1_455  S
C505        H506   1.093       .  S
C505        C910   1.554       .  S
C505        C512   1.546   1_655  S
C507        C903   1.538   1_565  S
C507        C510   1.384       .  D
C507        C533   1.523       .  S
C508        C511   1.385       .  D
C508        C549   1.498       .  S
C509        C512   1.376       .  D
C509        C517   1.502       .  S
C510        C905   1.554   1_565  S
C510        C565   1.497       .  S
C511        C597   1.519       .  S
C512        C581   1.507       .  S
C513        C514   1.408       .  A
C513        C518   1.407       .  A
C513        H520   1.084       .  S
C514        C515   1.431       .  A
C515        C516   1.416       .  A
C515        C522   1.517       .  S
C516        C517   1.402       .  A
C516       H1321   1.084   1_455  S
C517        C518   1.417       .  A
C518        C519   1.513       .  S
C519        F523   1.383       .  S
C519        F524   1.384       .  S
C519        F525   1.377       .  S
H521       C1316   1.084       .  S
C522        F526   1.381       .  S
C522        F527   1.383       .  S
C522       F1328   1.385   1_455  S
F528       C1322   1.385       .  S
C529        C530   1.397       .  A
C529        C534   1.407       .  A
C529        H536   1.082       .  S
C530        C531   1.416       .  A
C531        C532   1.412       .  A
C531        C538   1.519       .  S
C532        C533   1.412       .  A
C532        H537   1.079   1_565  S
C533        C534   1.431       .  A
C534        C535   1.515       .  S
C535        F539   1.385       .  S
C535        F540   1.366       .  S
C535        F541   1.379       .  S
C538        F542   1.384       .  S
C538        F543   1.382       .  S
C538        F544   1.385       .  S
C545        C546   1.399       .  A
C545        C550   1.401       .  A
C545        H552   1.085       .  S
C546        C547   1.422       .  A
C547        C548   1.404       .  A
C547        C554   1.518       .  S
C548        C549   1.401       .  A
C549        C550   1.428       .  A
C550       C1351   1.519   1_455  S
C551       C1350   1.519       .  S
C551        F555   1.384       .  S
C551        F556   1.375       .  S
C551        F557   1.382       .  S
C554        F558   1.381       .  S
C554        F559   1.383       .  S
C561        C562   1.407       .  A
C561        C566   1.406       .  A
C561        H568   1.082       .  S
C562        C563   1.418       .  A
C563        C564   1.405       .  A
C563        C570   1.520       .  S
C564        C565   1.407       .  A
C564        H569   1.082       .  S
C565        C566   1.417       .  A
C567        F571   1.385       .  S
C567        F572   1.379       .  S
C567        F573   1.379       .  S
C570        F574   1.384       .  S
C570        F575   1.382       .  S
C570        F576   1.385       .  S
C577        C578   1.405       .  A
C577        C582   1.409       .  A
C577        H584   1.082       .  S
C578        C579   1.417       .  A
C579        C580   1.410       .  A
C579        C586   1.519       .  S
C580        C581   1.409       .  A
C580       H1385   1.078       .  S
C581        C582   1.423       .  A
C582        C583   1.520       .  S
C583        F587   1.385       .  S
C583        F588   1.375       .  S
C583        F589   1.378       .  S
H585       C1380   1.079       .  S
C586        F590   1.383       .  S
C586        F591   1.383       .  S
C586       F1392   1.385       .  S
F592       C1386   1.385       .  S
C593        C594   1.402       .  A
C593        C598   1.413       .  A
C593        H600   1.082       .  S
C594        C595   1.414       .  A
C595        C596   1.405       .  A
C595        C602   1.520       .  S
C596        C597   1.411       .  A
C596        H601   1.079       .  S
C597        C598   1.431       .  A
C598       C1399   1.521   1_455  S
C599       C1398   1.521       .  S
C599        F603   1.385       .  S
C599        F604   1.373       .  S
C599        F605   1.380       .  S
C602        F606   1.384       .  S
C602        F607   1.382       .  S
C602        F608   1.385       .  S
C609        C610   1.396   1_545  A
C609        H616   1.083   1_545  S
C610        C611   1.414       .  A
C611        C618   1.518       .  S
C612        C613   1.404       .  A
C612        H617   1.083       .  S
C613        C614   1.424       .  A
C614        C615   1.522       .  S
C615        F619   1.385       .  S
C615        F620   1.383       .  S
C615        F621   1.383       .  S
C618        F622   1.384       .  S
C618        F623   1.382       .  S
C618        F624   1.385       .  S
C625        C626   1.407       .  A
C625       C1430   1.400       .  A
C625        H632   1.084       .  S
C626        C627   1.414   1_455  A
C627       C1428   1.406       .  A
C627        C634   1.519       .  S
C628       C1427   1.406       .  A
C628        C629   1.408       .  A
C628        H633   1.083       .  S
C629        C630   1.414       .  A
C630       C1425   1.400       .  A
C630        C631   1.520       .  S
C631        F635   1.385       .  S
C631        F636   1.382       .  S
C631        F637   1.384       .  S
C634        F638   1.382       .  S
C634        F639   1.384   1_655  S
C634        F640   1.384       .  S
C641        C642   1.407       .  A
C641        C646   1.404       .  A
C641        H648   1.083       .  S
C642        C643   1.419       .  A
C643        C644   1.405       .  A
C643        C650   1.521       .  S
C644        C645   1.404       .  A
C644        H649   1.084       .  S
C645        C646   1.412       .  A
C646        C647   1.519       .  S
C647        F651   1.384       .  S
C647        F652   1.384       .  S
C647        F653   1.383       .  S
C650        F654   1.384       .  S
C650        F655   1.383       .  S
C650        F656   1.385       .  S
C657        C658   1.414       .  A
C657        C662   1.418       .  A
C657        H664   1.081       .  S
C658        C659   1.428       .  A
C659        C660   1.415       .  A
C659        C666   1.517       .  S
C660        C661   1.405       .  A
C660        H665   1.083       .  S
C661        C662   1.418       .  A
C662        C663   1.517       .  S
C663        F667   1.385       .  S
C663        F668   1.383       .  S
C663        F669   1.383       .  S
C666       F1471   1.376       .  S
C666        F672   1.374       .  S
F671       C1466   1.376       .  S
C673        C674   1.407       .  A
C673        C678   1.413       .  A
C673        H680   1.083       .  S
C674        C675   1.413       .  A
C675        C676   1.407       .  A
C675        C682   1.519       .  S
C676        C677   1.413       .  A
C676        H681   1.080       .  S
C677        C678   1.427       .  A
C678        C679   1.523       .  S
C679        F683   1.385       .  S
C679        F684   1.380       .  S
C682        F686   1.383       .  S
C682        F687   1.383       .  S
C682        F688   1.385       .  S
C689        C690   1.408       .  A
C689        C694   1.419       .  A
C689        H696   1.083       .  S
C690        C691   1.437       .  A
C691        C692   1.407       .  A
C691       C1498   1.514       .  S
C692        C693   1.394       .  A
C692        H697   1.085       .  S
C693        C694   1.423       .  A
C694        C695   1.517       .  S
C695        F699   1.385       .  S
C695        F700   1.384       .  S
C695        F701   1.383       .  S
C698       C1491   1.514       .  S
C698        F702   1.362   1_655  S
C698        F703   1.384   1_655  S
C698        F704   1.383       .  S
C705        C706   1.406   1_554  A
C705        C710   1.400       .  A
C705        H712   1.084       .  S
C706       C1507   1.413       .  A
C707       C1506   1.413   1_455  A
C707        C708   1.406   1_556  A
C707        C714   1.519       .  S
C708        C709   1.407       .  A
C708        H713   1.083       .  S
C709       C1510   1.410       .  A
C710       C1509   1.410       .  A
C710        C711   1.516       .  S
C711        F715   1.384       .  S
C711        F716   1.383       .  S
C711       F1517   1.384       .  S
C714       F1518   1.384   1_455  S
C714        F719   1.383       .  S
C714        F720   1.384       .  S
F717       C1511   1.384   1_455  S
F718       C1514   1.384       .  S
C721        C722   1.403   1_554  A
C721        H728   1.084       .  S
C722        C723   1.410       .  A
C723        C730   1.512       .  S
C724        C725   1.404       .  A
C724        H729   1.083       .  S
C725        C726   1.412   1_565  A
C726        C727   1.515       .  S
C727        F732   1.382       .  S
C727        F733   1.383   1_545  S
C730        F734   1.383       .  S
C730        F735   1.382       .  S
C737        C738   1.410   1_554  A
C737        C742   1.405       .  A
C737        H744   1.083       .  S
C738        C739   1.413       .  A
C739        C740   1.401   1_556  A
C739        C746   1.520       .  S
C740        C741   1.408       .  A
C740        H745   1.084       .  S
C741        C742   1.411       .  A
C742        C743   1.518       .  S
C743        F747   1.385       .  S
C743        F748   1.383       .  S
C743        F749   1.383       .  S
C746        F750   1.382       .  S
C746        F751   1.384       .  S
C746        F752   1.385       .  S
C753        C754   1.406       .  A
C753        C758   1.410       .  A
C753        H760   1.084       .  S
C754        C755   1.429       .  A
C755        C756   1.412       .  A
C755        C762   1.515       .  S
C756        C757   1.399       .  A
C756        H761   1.084       .  S
C757        C758   1.420       .  A
C758        C759   1.513       .  S
C759        F763   1.384       .  S
C759        F764   1.382       .  S
C759        F765   1.377       .  S
C762        F766   1.383       .  S
C762        F767   1.379       .  S
C762        F768   1.385       .  S
C769        C770   1.396       .  A
C769        C774   1.400       .  A
C769        H776   1.086       .  S
C770        C771   1.422       .  A
C771        C772   1.415       .  A
C771        C778   1.519       .  S
C772        C773   1.409       .  A
C772        H777   1.082       .  S
C773        C774   1.433       .  A
C774        C775   1.515       .  S
C775        F779   1.383       .  S
C775        F780   1.362       .  S
C778        F782   1.382       .  S
C778        F783   1.384       .  S
C778        F784   1.385       .  S
C785        C786   1.400       .  A
C785        C790   1.409       .  A
C785        H792   1.083       .  S
C786        C787   1.415       .  A
C787        C788   1.410       .  A
C787        C794   1.519       .  S
C788        C789   1.411       .  A
C788        H793   1.082       .  S
C789        C790   1.431       .  A
C790       C1591   1.522       .  S
C791       C1590   1.522   1_455  S
C791        F795   1.385       .  S
C791        F796   1.381       .  S
C791        F797   1.374       .  S
C794        F798   1.382       .  S
C794        F799   1.384       .  S
C794        F800   1.385       .  S
Zn801       O805   1.971       .  S
Zn801       O806   2.045       .  S
Zn801       O810   2.060       .  S
Zn801       O817   2.057       .  S
Zn802       O805   1.967       .  S
Zn802       O807   2.023       .  S
Zn802       O809   2.017       .  S
Zn802       O813   2.037       .  S
Zn803       O805   1.958       .  S
Zn803       O808   2.032       .  S
Zn803       O811   2.028       .  S
Zn803       O814   2.050       .  S
Zn804       O805   1.914       .  S
Zn804       O812   1.921       .  S
Zn804       O815   1.934       .  S
Zn804       O816   1.909       .  S
O806        C818   1.280       .  A
O807        C819   1.274       .  A
O808        C820   1.275       .  A
O809        C818   1.274       .  A
O810        C820   1.281       .  A
O811        C819   1.279       .  A
O812        C821   1.259       .  A
O813        C822   1.272       .  A
O814        C821   1.273       .  A
O815        C822   1.260       .  A
O816        C823   1.260       .  A
O817        C823   1.275       .  A
C818       C1186   1.486       .  S
C819       C1170   1.490       .  S
C820       C1154   1.507       .  S
C821       C1122   1.461       .  S
C822       C1138   1.472       .  S
C823       C1106   1.468       .  S
Zn824       O828   1.969       .  S
Zn824       O829   2.091       .  S
Zn824       O833   2.102       .  S
Zn824       O840   2.074       .  S
Zn825       O828   1.965       .  S
Zn825       O830   2.005       .  S
Zn825       O832   2.008       .  S
Zn825       O836   2.003       .  S
Zn826       O828   1.947       .  S
Zn826       O831   2.008       .  S
Zn826       O834   1.977       .  S
Zn826       O837   2.003       .  S
Zn827       O828   1.949       .  S
Zn827       O835   1.988       .  S
Zn827       O838   1.986       .  S
Zn827       O839   1.980       .  S
O829        C841   1.285       .  A
O830        C842   1.272       .  A
O831        C843   1.274       .  A
O832        C841   1.272       .  A
O833        C843   1.284       .  A
O834        C842   1.266       .  A
O835        C844   1.266       .  A
O836        C845   1.270       .  A
O837        C844   1.270       .  A
O838        C845   1.266       .  A
O839        C846   1.271       .  A
O840        C846   1.281       .  A
C841       C1093   1.497       .  S
C842       C1029   1.486       .  S
C843       C1061   1.501       .  S
C844       C1013   1.482       .  S
C845       C1042   1.479       .  S
C846       C1074   1.489       .  S
C847        H848   1.099       .  S
C847        C851   1.555   1_565  S
C849       H1250   1.100       .  S
C849        C854   1.553       .  S
H850       C1249   1.100       .  S
C851        C854   1.388       .  D
C851       C1077   1.516       .  S
C852        C855   1.377       .  D
C852       C1058   1.523       .  S
C853        C856   1.386       .  D
C853       C1090   1.524       .  S
C854       C1173   1.516       .  S
C855       C1157   1.499       .  S
C856       C1189   1.520       .  S
Zn857       O861   1.929       .  S
Zn857       O862   1.948       .  S
Zn857       O866   1.960       .  S
Zn857       O873   1.948       .  S
Zn858       O861   1.965       .  S
Zn858       O863   2.041       .  S
Zn858       O865   2.039       .  S
Zn858       O869   2.042       .  S
Zn859       O861   1.956       .  S
Zn859       O864   2.035       .  S
Zn859       O867   2.029       .  S
Zn859       O870   2.004       .  S
Zn860       O861   1.964       .  S
Zn860       O868   2.016       .  S
Zn860       O871   2.018       .  S
Zn860       O872   2.039       .  S
O862        C874   1.264       .  A
O863        C875   1.278       .  A
O864        C876   1.274       .  A
O865        C874   1.275       .  A
O866        C876   1.263       .  A
O867        C875   1.274       .  A
O868        C877   1.273       .  A
O869        C878   1.277       .  A
O870        C877   1.275       .  A
O871        C878   1.276       .  A
O872        C879   1.272       .  A
O873        C879   1.263       .  A
C874       C1026   1.462       .  S
C875        C994   1.489       .  S
C876       C1010   1.468       .  S
C877        C962   1.484       .  S
C878        C978   1.491       .  S
C879       C1045   1.468       .  S
Zn880       O884   1.962       .  S
Zn880       O885   2.045       .  S
Zn880       O889   2.051       .  S
Zn880       O896   2.048       .  S
Zn881       O884   1.965       .  S
Zn881       O886   2.036       .  S
Zn881       O888   2.016       .  S
Zn881       O892   2.000       .  S
Zn882       O884   1.916       .  S
Zn882       O887   1.915       .  S
Zn882       O890   1.922       .  S
Zn882       O893   1.923       .  S
Zn883       O884   1.961       .  S
Zn883       O891   2.053       .  S
Zn883       O894   2.032       .  S
Zn883       O895   2.054       .  S
O885        C897   1.280       .  A
O886        C898   1.272       .  A
O887        C899   1.261       .  A
O888        C897   1.273       .  A
O889        C899   1.274       .  A
O890        C898   1.259       .  A
O891        C900   1.275       .  A
O892        C901   1.271       .  A
O893        C900   1.259       .  A
O894        C901   1.279       .  A
O895        C902   1.277       .  A
O896        C902   1.281       .  A
C897        C930   1.489       .  S
C898       C1125   1.466       .  S
C899       C1141   1.471       .  S
C900       C1109   1.466       .  S
C901        C946   1.484       .  S
C902        C914   1.513       .  S
C903        H904   1.101       .  S
C903        C909   1.544       .  S
C903       C1308   1.554   1_545  S
C905        H906   1.093       .  S
C905       C1311   1.544   1_545  S
C905        C912   1.545       .  S
C907        C910   1.383       .  D
C907        C933   1.523       .  S
C908       C1303   1.554       .  S
C908        C911   1.385       .  D
C908        C949   1.497       .  S
C909        C912   1.376       .  D
C909        C917   1.502       .  S
C910        C965   1.494       .  S
C911       C1305   1.545       .  S
C911        C997   1.522       .  S
C912        C981   1.506       .  S
C913        C914   1.409       .  A
C913        C918   1.407       .  A
C913        H920   1.084       .  S
C914        C915   1.431       .  A
C915        C916   1.416       .  A
C915        C922   1.518       .  S
C916        C917   1.402       .  A
C917        C918   1.417       .  A
C918        C919   1.514       .  S
C919        F923   1.383       .  S
C919        F924   1.384       .  S
C919        F925   1.376       .  S
C922        F926   1.380       .  S
C922        F927   1.383       .  S
C929        C930   1.398       .  A
C929        C934   1.408       .  A
C929        H936   1.082       .  S
C930        C931   1.417       .  A
C931        C932   1.413       .  A
C931        C938   1.519       .  S
C932        C933   1.412       .  A
C932        H937   1.078       .  S
C933        C934   1.430       .  A
C934        C935   1.514       .  S
C935        F939   1.385       .  S
C935        F940   1.365       .  S
C935        F941   1.379       .  S
C938        F942   1.384       .  S
C938        F943   1.382       .  S
C938        F944   1.385       .  S
C945        C946   1.398       .  A
C945        C950   1.400       .  A
C945        H952   1.085       .  S
C946        C947   1.422       .  A
C947        C948   1.405       .  A
C947        C954   1.517       .  S
C948        C949   1.401       .  A
C948       H1353   1.081       .  S
C949        C950   1.428       .  A
C951        F955   1.384       .  S
C951        F956   1.374       .  S
C951        F957   1.382   1_655  S
H953       C1348   1.080   1_545  S
C954        F958   1.379       .  S
C954        F959   1.383       .  S
C954       F1360   1.385       .  S
F960       C1354   1.385   1_545  S
C961        C962   1.406       .  A
C961        C966   1.404       .  A
C961        H968   1.082       .  S
C962        C963   1.418       .  A
C963        C964   1.405       .  A
C963        C970   1.520       .  S
C964        C965   1.407       .  A
C964        H969   1.082       .  S
C965        C966   1.416       .  A
C966       C1367   1.518       .  S
C967       C1366   1.519   1_545  S
C967        F971   1.385       .  S
C967        F972   1.380       .  S
C967        F973   1.379       .  S
C970        F974   1.384       .  S
C970        F975   1.383       .  S
C970        F976   1.385       .  S
C977        C978   1.405       .  A
C977        C982   1.409       .  A
C977        H984   1.081       .  S
C978        C979   1.417       .  A
C979        C980   1.408       .  A
C979        C986   1.519       .  S
C980        C981   1.408       .  A
C981        C982   1.423       .  A
C982        C983   1.520       .  S
C983        F987   1.385       .  S
C983        F988   1.375       .  S
C983        F989   1.377       .  S
C986        F990   1.384       .  S
C986        F991   1.382       .  S
C993        C994   1.402       .  A
C993        C998   1.414       .  A
C993       H1000   1.082       .  S
C994        C995   1.414       .  A
C995        C996   1.408       .  A
C995       C1002   1.521       .  S
C996        C997   1.413       .  A
C996       H1001   1.080       .  S
C997        C998   1.431       .  A
C999       F1003   1.385       .  S
C999       F1004   1.373       .  S
C999       F1005   1.380       .  S
C1002      F1006   1.384       .  S
C1002      F1007   1.381       .  S
C1002      F1008   1.385       .  S
C1009      C1010   1.396       .  A
C1009      C1414   1.402       .  A
C1009      H1016   1.083       .  S
C1010      C1011   1.417       .  A
C1011      C1412   1.406       .  A
C1011      C1018   1.521       .  S
C1012      C1411   1.402   1_545  A
C1012      C1013   1.405       .  A
C1012      H1017   1.084       .  S
C1013      C1014   1.426       .  A
C1014      C1409   1.403       .  A
C1014      C1015   1.522       .  S
C1015      F1019   1.385       .  S
C1015      F1020   1.383       .  S
C1015      F1021   1.383       .  S
C1018      F1022   1.383       .  S
C1018      F1023   1.382       .  S
C1018      F1024   1.385       .  S
C1025      C1026   1.398       .  A
C1025      H1032   1.084       .  S
C1026      C1027   1.408       .  A
C1027      C1034   1.518       .  S
C1028      C1029   1.412       .  A
C1028      H1033   1.082       .  S
C1029      C1030   1.426   1_655  A
C1030      C1031   1.523       .  S
C1031      F1035   1.385       .  S
C1031      F1036   1.383   1_455  S
C1031      F1037   1.384       .  S
C1034      F1038   1.383       .  S
C1034      F1039   1.384       .  S
C1034      F1040   1.385       .  S
C1041      C1042   1.408       .  A
C1041      C1046   1.405       .  A
C1041      H1048   1.083       .  S
C1042      C1043   1.419       .  A
C1043      C1044   1.403       .  A
C1043      C1050   1.521       .  S
C1044      C1045   1.402       .  A
C1044      H1049   1.084       .  S
C1045      C1046   1.412       .  A
C1046      C1047   1.519       .  S
C1047      F1051   1.385       .  S
C1047      F1052   1.384       .  S
C1047      F1053   1.383       .  S
C1050      F1054   1.384       .  S
C1050      F1055   1.383       .  S
C1050      F1056   1.385       .  S
C1057      C1058   1.412       .  A
C1057      C1062   1.416       .  A
C1057      H1064   1.082       .  S
C1058      C1059   1.427       .  A
C1059      C1060   1.414       .  A
C1059      C1066   1.518   1_655  S
C1060      C1061   1.405       .  A
C1060      H1065   1.084       .  S
C1061      C1062   1.416       .  A
C1062      C1063   1.517       .  S
C1063      F1067   1.384       .  S
C1063      F1068   1.383       .  S
C1063      F1069   1.383       .  S
C1066      F1470   1.385       .  S
C1066      F1072   1.374       .  S
F1070      C1466   1.385       .  S
C1073      C1074   1.406       .  A
C1073      C1078   1.411       .  A
C1073      H1080   1.083       .  S
C1074      C1075   1.413       .  A
C1075      C1076   1.407       .  A
C1075      C1082   1.519       .  S
C1076      C1077   1.414       .  A
C1076      H1081   1.079       .  S
C1077      C1078   1.427       .  A
C1078      C1079   1.523   1_545  S
C1079      F1083   1.385       .  S
C1079      F1084   1.381       .  S
C1079      F1485   1.375       .  S
C1082      F1086   1.383       .  S
C1082      F1087   1.383       .  S
C1082      F1088   1.385       .  S
F1085      C1479   1.375       .  S
C1089      C1090   1.408       .  A
C1089      C1094   1.418       .  A
C1089      H1096   1.083       .  S
C1090      C1091   1.437       .  A
C1091      C1092   1.406       .  A
C1092      C1093   1.393       .  A
C1092      H1097   1.086       .  S
C1093      C1094   1.423       .  A
C1094      C1095   1.518       .  S
C1095      F1099   1.385       .  S
C1095      F1100   1.384       .  S
C1095      F1101   1.383       .  S
C1098      F1102   1.362       .  S
C1098      F1103   1.384       .  S
C1098      F1104   1.383       .  S
C1105      C1106   1.406   1_554  A
C1105      C1110   1.399   1_655  A
C1105      H1112   1.084       .  S
C1107      C1108   1.406   1_556  A
C1107      C1114   1.519       .  S
C1108      C1109   1.407       .  A
C1108      H1113   1.084       .  S
C1110      C1111   1.516   1_455  S
C1111      F1115   1.384       .  S
C1111      F1116   1.382       .  S
C1114      F1119   1.383       .  S
C1114      F1120   1.385       .  S
C1121      C1122   1.402   1_554  A
C1121      C1526   1.400       .  A
C1121      H1128   1.083       .  S
C1122      C1123   1.411   1_545  A
C1123      C1524   1.401   1_556  A
C1123      C1130   1.513       .  S
C1124      C1523   1.400   1_554  A
C1124      C1125   1.405       .  A
C1124      H1129   1.084       .  S
C1125      C1126   1.412       .  A
C1126      C1521   1.399       .  A
C1126      C1127   1.514       .  S
C1127      F1531   1.385       .  S
C1127      F1132   1.382       .  S
C1127      F1133   1.382       .  S
C1130      F1134   1.384   1_565  S
C1130      F1135   1.381       .  S
C1130      F1536   1.385       .  S
F1131      C1527   1.385       .  S
F1136      C1530   1.385       .  S
C1137      C1138   1.410   1_554  A
C1137      C1142   1.404       .  A
C1137      H1144   1.083       .  S
C1138      C1139   1.412       .  A
C1139      C1140   1.400   1_556  A
C1139      C1146   1.520       .  S
C1140      C1141   1.408       .  A
C1140      H1145   1.084       .  S
C1141      C1142   1.411       .  A
C1142      C1143   1.518       .  S
C1143      F1147   1.385       .  S
C1143      F1148   1.383       .  S
C1143      F1149   1.383       .  S
C1146      F1150   1.383       .  S
C1146      F1151   1.384       .  S
C1146      F1152   1.385       .  S
C1153      C1154   1.407       .  A
C1153      C1158   1.409       .  A
C1153      H1160   1.084       .  S
C1154      C1155   1.430       .  A
C1155      C1156   1.411       .  A
C1155      C1162   1.516       .  S
C1156      C1157   1.399       .  A
C1156      H1161   1.083   1_545  S
C1157      C1158   1.419       .  A
C1158      C1159   1.513   1_655  S
C1159      F1163   1.384       .  S
C1159      F1164   1.382       .  S
C1159      F1165   1.377       .  S
C1162      F1166   1.383       .  S
C1162      F1167   1.380       .  S
C1162      F1168   1.385   1_545  S
C1169      C1170   1.395       .  A
C1169      C1174   1.400       .  A
C1169      H1176   1.086       .  S
C1170      C1171   1.421       .  A
C1171      C1172   1.414       .  A
C1171      C1178   1.519       .  S
C1172      C1173   1.409       .  A
C1172      H1177   1.082       .  S
C1173      C1174   1.432       .  A
C1174      C1175   1.514   1_545  S
C1175      F1179   1.383   1_565  S
C1175      F1180   1.362       .  S
C1175      F1581   1.384       .  S
C1178      F1182   1.382       .  S
C1178      F1183   1.384       .  S
C1178      F1184   1.385       .  S
F1181      C1575   1.384       .  S
C1185      C1186   1.399       .  A
C1185      C1190   1.410       .  A
C1185      H1192   1.083       .  S
C1186      C1187   1.415       .  A
C1187      C1188   1.411       .  A
C1187      C1194   1.519       .  S
C1188      C1189   1.412       .  A
C1188      H1193   1.082       .  S
C1189      C1190   1.432       .  A
C1191      F1195   1.385       .  S
C1191      F1196   1.381       .  S
C1191      F1197   1.374       .  S
C1194      F1198   1.382       .  S
C1194      F1199   1.384       .  S
C1194      F1200   1.385       .  S
Zn1201     O1205   1.970       .  S
Zn1201     O1206   2.043       .  S
Zn1201     O1210   2.065       .  S
Zn1201     O1217   2.056       .  S
Zn1202     O1205   1.970       .  S
Zn1202     O1207   2.031       .  S
Zn1202     O1209   2.018       .  S
Zn1202     O1213   2.042       .  S
Zn1203     O1205   1.959       .  S
Zn1203     O1208   2.038       .  S
Zn1203     O1211   2.028       .  S
Zn1203     O1214   2.047       .  S
Zn1204     O1205   1.916       .  S
Zn1204     O1212   1.914       .  S
Zn1204     O1215   1.936       .  S
Zn1204     O1216   1.914       .  S
O1206      C1218   1.280       .  A
O1207      C1219   1.275       .  A
O1208      C1220   1.276       .  A
O1209      C1218   1.274       .  A
O1210      C1220   1.282       .  A
O1211      C1219   1.279       .  A
O1212      C1221   1.259       .  A
O1213      C1222   1.273       .  A
O1214      C1221   1.273       .  A
O1215      C1222   1.261       .  A
O1216      C1223   1.260       .  A
O1217      C1223   1.275       .  A
C1218      C1586   1.486       .  S
C1219      C1570   1.493       .  S
C1220      C1554   1.507       .  S
C1221      C1522   1.463       .  S
C1222      C1538   1.474       .  S
C1223      C1506   1.468       .  S
Zn1224     O1228   1.970       .  S
Zn1224     O1229   2.096       .  S
Zn1224     O1233   2.106       .  S
Zn1224     O1240   2.078       .  S
Zn1225     O1228   1.964       .  S
Zn1225     O1230   1.998       .  S
Zn1225     O1232   2.011       .  S
Zn1225     O1236   1.999       .  S
Zn1226     O1228   1.956       .  S
Zn1226     O1231   2.013       .  S
Zn1226     O1234   1.991       .  S
Zn1226     O1237   2.014       .  S
Zn1227     O1228   1.952       .  S
Zn1227     O1235   1.986       .  S
Zn1227     O1238   1.993       .  S
Zn1227     O1239   1.984       .  S
O1229      C1241   1.286       .  A
O1230      C1242   1.270       .  A
O1231      C1243   1.275       .  A
O1232      C1241   1.272       .  A
O1233      C1243   1.285       .  A
O1234      C1242   1.269       .  A
O1235      C1244   1.267       .  A
O1236      C1245   1.270       .  A
O1237      C1244   1.271       .  A
O1238      C1245   1.267       .  A
O1239      C1246   1.271       .  A
O1240      C1246   1.282       .  A
C1241      C1493   1.498       .  S
C1242      C1429   1.470       .  S
C1243      C1461   1.505       .  S
C1244      C1413   1.480       .  S
C1245      C1442   1.478       .  S
C1246      C1474   1.492       .  S
C1247      H1248   1.098       .  S
C1247      C1251   1.556       .  S
C1249      C1254   1.555       .  S
C1251      C1254   1.388       .  D
C1251      C1477   1.519       .  S
C1252      C1255   1.378       .  D
C1252      C1458   1.527       .  S
C1253      C1256   1.386       .  D
C1253      C1490   1.523       .  S
C1254      C1573   1.517       .  S
C1255      C1557   1.502       .  S
C1256      C1589   1.518       .  S
Zn1257     O1261   1.925       .  S
Zn1257     O1262   1.943       .  S
Zn1257     O1266   1.960       .  S
Zn1257     O1273   1.949       .  S
Zn1258     O1261   1.964       .  S
Zn1258     O1263   2.042       .  S
Zn1258     O1265   2.043       .  S
Zn1258     O1269   2.048       .  S
Zn1259     O1261   1.953       .  S
Zn1259     O1264   2.028       .  S
Zn1259     O1267   2.019       .  S
Zn1259     O1270   2.005       .  S
Zn1260     O1261   1.959       .  S
Zn1260     O1268   2.025       .  S
Zn1260     O1271   2.020       .  S
Zn1260     O1272   2.045       .  S
O1262      C1274   1.265       .  A
O1263      C1275   1.278       .  A
O1264      C1276   1.273       .  A
O1265      C1274   1.275       .  A
O1266      C1276   1.264       .  A
O1267      C1275   1.273       .  A
O1268      C1277   1.275       .  A
O1269      C1278   1.278       .  A
O1270      C1277   1.274       .  A
O1271      C1278   1.277       .  A
O1272      C1279   1.273       .  A
O1273      C1279   1.263       .  A
C1274      C1426   1.472       .  S
C1275      C1394   1.487       .  S
C1276      C1410   1.464       .  S
C1277      C1362   1.485       .  S
C1278      C1378   1.492       .  S
C1279      C1445   1.470       .  S
Zn1280     O1284   1.963       .  S
Zn1280     O1285   2.044       .  S
Zn1280     O1289   2.054       .  S
Zn1280     O1296   2.047       .  S
Zn1281     O1284   1.964       .  S
Zn1281     O1286   2.035       .  S
Zn1281     O1288   2.013       .  S
Zn1281     O1292   1.996       .  S
Zn1282     O1284   1.919       .  S
Zn1282     O1287   1.921       .  S
Zn1282     O1290   1.926       .  S
Zn1282     O1293   1.935       .  S
Zn1283     O1284   1.962       .  S
Zn1283     O1291   2.051       .  S
Zn1283     O1294   2.036       .  S
Zn1283     O1295   2.054       .  S
O1285      C1297   1.280       .  A
O1286      C1298   1.272       .  A
O1287      C1299   1.261       .  A
O1288      C1297   1.272       .  A
O1289      C1299   1.274       .  A
O1290      C1298   1.260       .  A
O1291      C1300   1.276       .  A
O1292      C1301   1.271       .  A
O1293      C1300   1.261       .  A
O1294      C1301   1.279       .  A
O1295      C1302   1.278       .  A
O1296      C1302   1.281       .  A
C1297      C1330   1.488       .  S
C1298      C1525   1.462       .  S
C1299      C1541   1.473       .  S
C1300      C1509   1.469       .  S
C1301      C1346   1.483       .  S
C1302      C1314   1.512       .  S
C1303      H1304   1.102       .  S
C1303      C1309   1.545       .  S
C1305      H1306   1.093       .  S
C1305      C1312   1.546       .  S
C1307      C1310   1.384       .  D
C1307      C1333   1.523       .  S
C1308      C1311   1.386       .  D
C1308      C1349   1.499       .  S
C1309      C1312   1.376       .  D
C1309      C1317   1.502       .  S
C1310      C1365   1.496       .  S
C1311      C1397   1.519       .  S
C1312      C1381   1.507       .  S
C1313      C1314   1.408       .  A
C1313      C1318   1.407       .  A
C1313      H1320   1.084       .  S
C1314      C1315   1.431       .  A
C1315      C1316   1.416       .  A
C1315      C1322   1.518       .  S
C1316      C1317   1.402       .  A
C1317      C1318   1.417       .  A
C1318      C1319   1.513       .  S
C1319      F1323   1.383       .  S
C1319      F1324   1.384       .  S
C1319      F1325   1.377       .  S
C1322      F1326   1.381       .  S
C1322      F1327   1.383       .  S
C1329      C1330   1.397       .  A
C1329      C1334   1.408       .  A
C1329      H1336   1.082       .  S
C1330      C1331   1.416       .  A
C1331      C1332   1.411       .  A
C1331      C1338   1.519       .  S
C1332      C1333   1.412       .  A
C1332      H1337   1.079   1_565  S
C1333      C1334   1.431       .  A
C1334      C1335   1.515       .  S
C1335      F1339   1.385       .  S
C1335      F1340   1.366       .  S
C1335      F1341   1.379       .  S
C1338      F1342   1.384       .  S
C1338      F1343   1.382       .  S
C1338      F1344   1.385       .  S
C1345      C1346   1.398       .  A
C1345      C1350   1.402       .  A
C1345      H1352   1.085       .  S
C1346      C1347   1.422       .  A
C1347      C1348   1.404       .  A
C1347      C1354   1.519       .  S
C1348      C1349   1.402       .  A
C1349      C1350   1.429       .  A
C1351      F1355   1.384       .  S
C1351      F1356   1.375       .  S
C1351      F1357   1.382   1_655  S
C1354      F1358   1.382       .  S
C1354      F1359   1.383       .  S
C1361      C1362   1.407       .  A
C1361      C1366   1.406       .  A
C1361      H1368   1.082       .  S
C1362      C1363   1.417       .  A
C1363      C1364   1.405       .  A
C1363      C1370   1.519       .  S
C1364      C1365   1.408       .  A
C1364      H1369   1.082       .  S
C1365      C1366   1.417       .  A
C1367      F1371   1.385       .  S
C1367      F1372   1.379       .  S
C1367      F1373   1.379       .  S
C1370      F1374   1.384       .  S
C1370      F1375   1.382       .  S
C1370      F1376   1.385       .  S
C1377      C1378   1.405       .  A
C1377      C1382   1.409       .  A
C1377      H1384   1.082       .  S
C1378      C1379   1.417       .  A
C1379      C1380   1.410       .  A
C1379      C1386   1.519       .  S
C1380      C1381   1.409       .  A
C1381      C1382   1.423       .  A
C1382      C1383   1.520       .  S
C1383      F1387   1.385       .  S
C1383      F1388   1.375       .  S
C1383      F1389   1.378       .  S
C1386      F1390   1.383       .  S
C1386      F1391   1.383       .  S
C1393      C1394   1.402       .  A
C1393      C1398   1.413       .  A
C1393      H1400   1.082       .  S
C1394      C1395   1.414       .  A
C1395      C1396   1.406       .  A
C1395      C1402   1.520       .  S
C1396      C1397   1.411       .  A
C1396      H1401   1.079       .  S
C1397      C1398   1.431       .  A
C1399      F1403   1.385       .  S
C1399      F1404   1.373       .  S
C1399      F1405   1.380       .  S
C1402      F1406   1.384       .  S
C1402      F1407   1.382       .  S
C1402      F1408   1.385       .  S
C1409      C1410   1.397   1_545  A
C1409      H1416   1.083   1_545  S
C1410      C1411   1.415       .  A
C1411      C1418   1.519       .  S
C1412      C1413   1.404       .  A
C1412      H1417   1.083       .  S
C1413      C1414   1.425       .  A
C1414      C1415   1.522       .  S
C1415      F1419   1.385       .  S
C1415      F1420   1.383       .  S
C1415      F1421   1.383       .  S
C1418      F1422   1.383       .  S
C1418      F1423   1.383       .  S
C1418      F1424   1.384       .  S
C1425      C1426   1.406       .  A
C1425      H1432   1.084       .  S
C1426      C1427   1.413       .  A
C1427      C1434   1.519       .  S
C1428      C1429   1.407       .  A
C1428      H1433   1.083       .  S
C1429      C1430   1.412   1_655  A
C1430      C1431   1.520       .  S
C1431      F1435   1.385       .  S
C1431      F1436   1.382       .  S
C1431      F1437   1.384       .  S
C1434      F1438   1.382       .  S
C1434      F1439   1.384       .  S
C1434      F1440   1.384       .  S
C1441      C1442   1.407       .  A
C1441      C1446   1.404       .  A
C1441      H1448   1.083       .  S
C1442      C1443   1.418       .  A
C1443      C1444   1.405       .  A
C1443      C1450   1.521       .  S
C1444      C1445   1.404       .  A
C1444      H1449   1.084       .  S
C1445      C1446   1.412       .  A
C1446      C1447   1.518       .  S
C1447      F1451   1.384       .  S
C1447      F1452   1.384       .  S
C1447      F1453   1.383       .  S
C1450      F1454   1.384       .  S
C1450      F1455   1.383       .  S
C1450      F1456   1.385       .  S
C1457      C1458   1.414       .  A
C1457      C1462   1.417       .  A
C1457      H1464   1.081       .  S
C1458      C1459   1.428       .  A
C1459      C1460   1.415       .  A
C1459      C1466   1.518   1_655  S
C1460      C1461   1.405       .  A
C1460      H1465   1.083       .  S
C1461      C1462   1.418       .  A
C1462      C1463   1.517       .  S
C1463      F1467   1.385       .  S
C1463      F1468   1.383       .  S
C1463      F1469   1.383       .  S
C1466      F1472   1.374       .  S
C1473      C1474   1.407       .  A
C1473      C1478   1.413       .  A
C1473      H1480   1.083       .  S
C1474      C1475   1.413       .  A
C1475      C1476   1.407       .  A
C1475      C1482   1.519       .  S
C1476      C1477   1.413       .  A
C1476      H1481   1.079       .  S
C1477      C1478   1.428       .  A
C1478      C1479   1.523       .  S
C1479      F1483   1.385       .  S
C1479      F1484   1.380       .  S
C1482      F1486   1.383       .  S
C1482      F1487   1.383       .  S
C1482      F1488   1.385       .  S
C1489      C1490   1.408       .  A
C1489      C1494   1.418       .  A
C1489      H1496   1.083       .  S
C1490      C1491   1.437       .  A
C1491      C1492   1.407       .  A
C1492      C1493   1.394       .  A
C1492      H1497   1.085       .  S
C1493      C1494   1.423       .  A
C1494      C1495   1.517       .  S
C1495      F1499   1.385       .  S
C1495      F1500   1.384       .  S
C1495      F1501   1.383       .  S
C1498      F1502   1.363       .  S
C1498      F1503   1.384       .  S
C1498      F1504   1.383       .  S
C1505      C1506   1.406   1_554  A
C1505      C1510   1.400   1_655  A
C1505      H1512   1.084       .  S
C1507      C1508   1.407   1_556  A
C1507      C1514   1.519       .  S
C1508      C1509   1.407       .  A
C1508      H1513   1.083       .  S
C1510      C1511   1.516   1_455  S
C1511      F1515   1.384       .  S
C1511      F1516   1.382       .  S
C1514      F1519   1.383       .  S
C1514      F1520   1.384       .  S
C1521      C1522   1.403   1_554  A
C1521      H1528   1.084       .  S
C1522      C1523   1.410       .  A
C1523      C1530   1.512       .  S
C1524      C1525   1.404       .  A
C1524      H1529   1.083       .  S
C1525      C1526   1.412   1_565  A
C1526      C1527   1.515       .  S
C1527      F1532   1.382       .  S
C1527      F1533   1.383   1_545  S
C1530      F1534   1.382       .  S
C1530      F1535   1.382       .  S
C1537      C1538   1.410   1_554  A
C1537      C1542   1.405       .  A
C1537      H1544   1.083       .  S
C1538      C1539   1.413       .  A
C1539      C1540   1.401   1_556  A
C1539      C1546   1.520       .  S
C1540      C1541   1.408       .  A
C1540      H1545   1.084       .  S
C1541      C1542   1.411       .  A
C1542      C1543   1.518       .  S
C1543      F1547   1.385       .  S
C1543      F1548   1.383       .  S
C1543      F1549   1.383       .  S
C1546      F1550   1.382       .  S
C1546      F1551   1.384       .  S
C1546      F1552   1.385       .  S
C1553      C1554   1.406       .  A
C1553      C1558   1.410       .  A
C1553      H1560   1.084       .  S
C1554      C1555   1.429       .  A
C1555      C1556   1.412       .  A
C1555      C1562   1.515       .  S
C1556      C1557   1.399       .  A
C1556      H1561   1.084       .  S
C1557      C1558   1.420       .  A
C1558      C1559   1.513   1_655  S
C1559      F1563   1.384       .  S
C1559      F1564   1.382       .  S
C1559      F1565   1.377       .  S
C1562      F1566   1.383       .  S
C1562      F1567   1.379       .  S
C1562      F1568   1.385       .  S
C1569      C1570   1.396       .  A
C1569      C1574   1.400       .  A
C1569      H1576   1.086       .  S
C1570      C1571   1.422       .  A
C1571      C1572   1.415       .  A
C1571      C1578   1.519       .  S
C1572      C1573   1.409       .  A
C1572      H1577   1.082       .  S
C1573      C1574   1.433       .  A
C1574      C1575   1.515       .  S
C1575      F1579   1.383       .  S
C1575      F1580   1.362       .  S
C1578      F1582   1.382       .  S
C1578      F1583   1.384       .  S
C1578      F1584   1.385       .  S
C1585      C1586   1.400       .  A
C1585      C1590   1.410       .  A
C1585      H1592   1.083       .  S
C1586      C1587   1.415       .  A
C1587      C1588   1.409       .  A
C1587      C1594   1.519       .  S
C1588      C1589   1.411       .  A
C1588      H1593   1.082       .  S
C1589      C1590   1.432       .  A
C1591      F1595   1.385       .  S
C1591      F1596   1.381       .  S
C1591      F1597   1.374       .  S
C1594      F1598   1.382       .  S
C1594      F1599   1.384       .  S
C1594      F1600   1.385       .  S
