geometry optimzed in LAMMPS
_audit_creation_date              2020-11-30 
_audit_creation_method            'lammps2cif' 
_symmetry_space_group_name_H-M    'P1' 
_symmetry_Int_Tables_number       1 
_symmetry_cell_setting            triclinic 
loop_ 
_symmetry_equiv_pos_as_xyz 
  x,y,z 
_cell_length_a                    41.42615492 
_cell_length_b                    41.19320405733595 
_cell_length_c                    31.798829568529825 
_cell_angle_alpha                 91.6964255317186 
_cell_angle_beta                  89.55921652816768 
_cell_angle_gamma                 120.53394107791084 
loop_ 
_atom_site_label 
_atom_site_type_symbol 
_atom_site_fract_x 
_atom_site_fract_y 
_atom_site_fract_z 
_atom_site_charge 
O1          O  0.59379560  0.71285860  0.39802131    -0.85900
O2          O  0.57950289  0.67342737  0.46961571    -0.82900
C3          C  0.57222104  0.69398021  0.49310996     0.97600
O4          O  0.54233297  0.69429124  0.48711884    -0.83000
O5          O  0.48042460  0.68780493  0.44564710    -0.85600
C6          C  0.48617255  0.71038501  0.41640342     1.02100
O7          O  0.50240450  0.70951876  0.38314085    -0.78400
O8          O  0.55944324  0.70763626  0.34268266    -0.78600
C9          C  0.58872544  0.72660075  0.36567835     1.02000
O10         O  0.56720683  0.64613145  0.34812122    -0.85900
O11         O  0.53981749  0.60597869  0.41982051    -0.83000
C12         C  0.52136346  0.59330241  0.45298958     0.97600
O13         O  0.51076180  0.61256697  0.47488576    -0.83000
O14         O  0.45214927  0.60891471  0.43247223    -0.85600
C15         C  0.43446695  0.60815807  0.40003017     1.02100
O16         O  0.45156464  0.63032988  0.37016114    -0.78400
O17         O  0.50954523  0.62528607  0.32883144    -0.78600
C18         C  0.54019044  0.62610148  0.32351143     1.02000
Cr19       Cr  0.56634056  0.65951588  0.40877223     1.93700
Cr20       Cr  0.49863348  0.65175683  0.45617404     1.93200
Cr21       Cr  0.50705996  0.66715274  0.35999514     1.39100
O22         O  0.52346105  0.65947212  0.40824236    -1.23600
O23         O  0.71646337  0.60749850  0.08200505    -0.85900
O24         O  0.67840041  0.59556800  0.00807304    -0.82900
C25         C  0.69892464  0.58867775  0.98450214     0.97600
O26         O  0.69972490  0.55881078  0.98909828    -0.83000
O27         O  0.69041348  0.49373415  0.02452513    -0.85600
C28         C  0.71135958  0.49633977  0.05475018     1.02100
O29         O  0.71079115  0.51173899  0.08942269    -0.78400
O30         O  0.70952248  0.56952363  0.13346113    -0.78600
C31         C  0.72912375  0.60008286  0.11390515     1.02000
O32         O  0.64906357  0.57943080  0.12792415    -0.85900
O33         O  0.61029038  0.55352069  0.05332243    -0.83000
C34         C  0.59813768  0.53470033  0.01930514     0.97600
O35         O  0.61930572  0.52826712  0.99583942    -0.83000
O36         O  0.61272116  0.46685542  0.03309497    -0.85600
C37         C  0.60992662  0.44809342  0.06490779     1.02100
O38         O  0.63135708  0.46360263  0.09665801    -0.78400
O39         O  0.62800012  0.52073479  0.14206570    -0.78600
C40         C  0.62911222  0.55143236  0.15011473     1.02000
Cr41       Cr  0.66347599  0.58037037  0.06756069     1.93700
Cr42       Cr  0.65643041  0.51405148  0.01470902     1.93200
Cr43       Cr  0.66926071  0.51809136  0.11165489     1.39100
O44         O  0.66329555  0.53705417  0.06473044    -1.23600
O45         O  0.72559118  0.78855972  0.76087542    -0.85900
O46         O  0.73222370  0.76045123  0.68352412    -0.82900
C47         C  0.74062593  0.78699050  0.65918672     0.97600
O48         O  0.77160789  0.81736654  0.66382462    -0.83000
O49         O  0.83521751  0.87522052  0.70587256    -0.85600
C50         C  0.83257529  0.89196306  0.73880469     1.02100
O51         O  0.81792952  0.87416544  0.77179461    -0.78400
O52         O  0.76473575  0.81408237  0.81434437    -0.78600
C53         C  0.73472613  0.80655867  0.79568492     1.02000
O54         O  0.75334584  0.74594740  0.80004158    -0.85900
O55         O  0.77239259  0.73143283  0.72216244    -0.83000
C56         C  0.79150202  0.73791105  0.68912753     0.97600
O57         O  0.80369026  0.76848036  0.66955903    -0.83000
O58         O  0.86518363  0.82607016  0.70939329    -0.85600
C59         C  0.88310880  0.84083403  0.74315545     1.02100
O60         O  0.86723835  0.84556784  0.77476673    -0.78400
O61         O  0.81285389  0.78229831  0.81391613    -0.78600
C62         C  0.78196061  0.75307346  0.82108561     1.02000
Cr63       Cr  0.74970813  0.76041653  0.74152571     1.93700
Cr64       Cr  0.81664645  0.82030881  0.69131916     1.93200
Cr65       Cr  0.81399897  0.82683898  0.78935043     1.39100
O66         O  0.79400062  0.80293706  0.74044545    -1.23600
O67         O  0.27481666  0.43375201  0.87143698    -0.85900
O68         O  0.27129510  0.48952585  0.91729500    -0.82900
C69         C  0.27079313  0.50551731  0.95155994     0.97600
O70         O  0.29248637  0.50953576  0.98160483    -0.83000
O71         O  0.28367272  0.44492247  0.01817951    -0.85600
C72         C  0.28427486  0.41490848  0.02257766     1.02100
O73         O  0.30345543  0.40709575  0.99785019    -0.78400
O74         O  0.26688903  0.39559213  0.92284693    -0.78600
C75         C  0.25529374  0.40267029  0.88988017     1.02000
O76         O  0.35550605  0.48342939  0.86411981    -0.85900
O77         O  0.35041951  0.53967844  0.91011447    -0.83000
C78         C  0.37232196  0.55546363  0.94141210     0.97600
O79         O  0.37043735  0.53673415  0.97295834    -0.83000
O80         O  0.36362088  0.47523922  0.01161598    -0.85600
C81         C  0.38385693  0.46646546  0.98956941     1.02100
O82         O  0.37229420  0.44889041  0.95477631    -0.78400
O83         O  0.33569030  0.42495714  0.87873455    -0.78600
C84         C  0.35508276  0.45299460  0.85622324     1.02000
Cr85       Cr  0.31370253  0.48499597  0.89468511     1.93700
Cr86       Cr  0.32670361  0.48944852  0.99178856     1.93200
Cr87       Cr  0.31960205  0.42285510  0.93879406     1.39100
O88         O  0.31989106  0.46618365  0.94171514    -1.23600
O89         O  0.44665746  0.29063814  0.66783541    -0.85900
O90         O  0.50991942  0.31077393  0.62351463    -0.82900
C91         C  0.49805882  0.28693310  0.59292036     0.97600
O92         O  0.47784737  0.28885177  0.56443726    -0.83000
O93         O  0.43026491  0.30927943  0.52349602    -0.85600
C94         C  0.39726809  0.28847415  0.53668952     1.02100
O95         O  0.39068291  0.28989640  0.57513833    -0.78400
O96         O  0.40141272  0.30312265  0.65933799    -0.78600
C97         C  0.41274930  0.28150017  0.67067573     1.02000
O98         O  0.46967206  0.36717481  0.68954781    -0.85900
O99         O  0.53336804  0.38932350  0.63550658    -0.83000
C100        C  0.55095602  0.39057237  0.60209397     0.97600
O101        O  0.53389037  0.36692356  0.57224210    -0.83000
O102        O  0.48434278  0.38637570  0.54284015    -0.85600
C103        C  0.45790697  0.39315654  0.54592571     1.02100
O104        O  0.42716135  0.37014127  0.56268430    -0.78400
O105        O  0.43878770  0.38278140  0.64735812    -0.78600
C106        C  0.45184406  0.38422278  0.68340487     1.02000
Cr107      Cr  0.48798266  0.33996155  0.65070538     1.93700
Cr108      Cr  0.47990139  0.33762718  0.55473493     1.93200
Cr109      Cr  0.41833461  0.33667411  0.61059348     1.39100
O110        O  0.46205293  0.33833904  0.60548321    -1.23600
O111        O  0.23183062  0.19373895  0.19998120    -0.85900
O112        O  0.17592171  0.13043207  0.23423738    -0.82900
C113        C  0.16138927  0.11124964  0.26629519     0.97600
O114        O  0.15667437  0.12597067  0.29960527    -0.83000
O115        O  0.21733373  0.18432806  0.34396460    -0.85600
C116        C  0.24595430  0.21632245  0.35102778     1.02100
O117        O  0.24905642  0.24411403  0.33219204    -0.78400
O118        O  0.26704135  0.22306891  0.25623179    -0.78600
C119        C  0.26172857  0.20522019  0.22161165     1.02000
O120        O  0.17966961  0.22217223  0.19438585    -0.85900
O121        O  0.12431756  0.15697576  0.22931562    -0.83000
C122        C  0.10588464  0.15777604  0.26098959     0.97600
O123        O  0.12167759  0.17005926  0.29641579    -0.83000
O124        O  0.17903627  0.22865471  0.33993103    -0.85600
C125        C  0.18498624  0.25684736  0.31856525     1.02100
O126        O  0.20622151  0.26669330  0.28713123    -0.78400
O127        O  0.23727808  0.26095747  0.21320790    -0.78600
C128        C  0.20982885  0.25274513  0.18959674     1.02000
Cr129      Cr  0.17923396  0.17781881  0.21860736     1.93700
Cr130      Cr  0.17101144  0.17899348  0.31639689     1.93200
Cr131      Cr  0.23648056  0.24494119  0.27213053     1.39100
O132        O  0.19502470  0.19978029  0.26898701    -1.23600
O133        O  0.43989546  0.06494847  0.05514827    -0.85900
O134        O  0.41296081  0.07221357  0.13196379    -0.82900
C135        C  0.44061188  0.08001006  0.15517298     0.97600
O136        O  0.47081976  0.11057421  0.15048733    -0.83000
O137        O  0.52636747  0.17464657  0.11390864    -0.85600
C138        C  0.54297990  0.17132864  0.08182689     1.02100
O139        O  0.52581113  0.15837483  0.04730423    -0.78400
O140        O  0.46630401  0.10351956  0.00277504    -0.78600
C141        C  0.45900565  0.07389956  0.02198387     1.02000
O142        O  0.39731313  0.09185425  0.01463179    -0.85900
O143        O  0.38365749  0.11244926  0.09268006    -0.83000
C144        C  0.39016812  0.13033623  0.12740017     0.97600
O145        O  0.42054999  0.14139132  0.14781938    -0.83000
O146        O  0.47674846  0.20373479  0.11173710    -0.85600
C147        C  0.49271295  0.22316533  0.08020930     1.02100
O148        O  0.49647687  0.20796396  0.04667065    -0.78400
O149        O  0.43325750  0.15158892  0.00257644    -0.78600
C150        C  0.40430066  0.12025090  0.99384322     1.02000
Cr151      Cr  0.41206851  0.08910785  0.07373809     1.93700
Cr152      Cr  0.47207664  0.15550576  0.12674338     1.93200
Cr153      Cr  0.47818345  0.15378585  0.02880135     1.39100
O154        O  0.45450244  0.13348114  0.07648778    -1.23600
O155        O  0.26323878  0.05482615  0.72238768    -0.85900
O156        O  0.25107525  0.01648893  0.79499271    -0.82900
C157        C  0.24294484  0.03613180  0.81891745     0.97600
O158        O  0.21270155  0.03577086  0.81283303    -0.83000
O159        O  0.15063371  0.02884203  0.77096281    -0.85600
C160        C  0.15570731  0.05059651  0.74099539     1.02100
O161        O  0.17154590  0.04905485  0.70763749    -0.78400
O162        O  0.22827563  0.04668965  0.66679580    -0.78600
C163        C  0.25673287  0.06747686  0.68995121     1.02000
O164        O  0.23760206  0.98708218  0.67402257    -0.85900
O165        O  0.21235658  0.94786064  0.74741931    -0.83000
C166        C  0.19388346  0.93554628  0.78078559     0.97600
O167        O  0.18185404  0.95435125  0.80121329    -0.83000
O168        O  0.12178246  0.94958963  0.75896521    -0.85600
C169        C  0.10535498  0.94791754  0.72499618     1.02100
O170        O  0.12285516  0.96997280  0.69551619    -0.78400
O171        O  0.17955711  0.96485471  0.65549134    -0.78600
C172        C  0.21036831  0.96628786  0.64994657     1.02000
Cr173      Cr  0.23731191  0.00141095  0.73450800     1.93700
Cr174      Cr  0.16897820  0.99288430  0.78203118     1.93200
Cr175      Cr  0.17698079  0.00681979  0.68541094     1.39100
O176        O  0.19377124  0.00014716  0.73400082    -1.23600
O177        O  0.36877534  0.93173338  0.44357431    -0.85900
O178        O  0.36911682  0.92944799  0.35795286    -0.82900
C179        C  0.36695814  0.91576446  0.32145738     0.97600
O180        O  0.34820888  0.88042272  0.31500688    -0.83000
O181        O  0.37587426  0.84166552  0.36108572    -0.85600
C182        C  0.38123713  0.82595820  0.39175154     1.02100
O183        O  0.36154834  0.81944761  0.42439472    -0.78400
O184        O  0.38684211  0.89081954  0.45545240    -0.78600
C185        C  0.39321391  0.92418278  0.45557508     1.02000
O186        O  0.28781021  0.88797056  0.44266578    -0.85900
O187        O  0.28825344  0.88651095  0.35697138    -0.83000
C188        C  0.26590041  0.85307042  0.34421341     0.97600
O189        O  0.27508917  0.82823028  0.34344847    -0.83000
O190        O  0.29955897  0.78666608  0.38117234    -0.85600
C191        C  0.27991848  0.77659659  0.41421087     1.02100
O192        O  0.28667726  0.80001874  0.44430336    -0.78400
O193        O  0.31516337  0.87005194  0.48675657    -0.78600
C194        C  0.29282514  0.88163686  0.47979805     1.02000
Cr195      Cr  0.32864009  0.90533610  0.40027986     1.93700
Cr196      Cr  0.32552896  0.83665946  0.35371393     1.93200
Cr197      Cr  0.33677387  0.84634621  0.44896737     1.39100
O198        O  0.33031150  0.86302095  0.40078667    -1.23600
O199        O  0.52361743  0.90226451  0.99898473    -0.85900
O200        O  0.46048907  0.84743112  0.95784995    -0.82900
C201        C  0.44216216  0.83397615  0.92400395     0.97600
O202        O  0.45774497  0.83046407  0.89131391    -0.83000
O203        O  0.51302492  0.89474519  0.85435480    -0.85600
C204        C  0.54411575  0.92401848  0.84801392     1.02100
O205        O  0.57261575  0.92962682  0.86818840    -0.78400
O206        O  0.55227116  0.94061184  0.94676723    -0.78600
C207        C  0.53321482  0.93260628  0.97995322     1.02000
O208        O  0.55326642  0.85122484  0.99842843    -0.85900
O209        O  0.48834995  0.79639661  0.95589156    -0.83000
C210        C  0.49025729  0.78052079  0.92184460     0.97600
O211        O  0.50498400  0.79940598  0.88947391    -0.83000
O212        O  0.55979969  0.86104124  0.84984682    -0.85600
C213        C  0.58983519  0.86791128  0.86808653     1.02100
O214        O  0.59914421  0.88486579  0.90355666    -0.78400
O215        O  0.59242008  0.90951639  0.98312906    -0.78600
C216        C  0.58407911  0.88138640  0.00498026     1.02000
Cr217      Cr  0.50861892  0.85092934  0.97371759     1.93700
Cr218      Cr  0.51064674  0.84844391  0.87550602     1.93200
Cr219      Cr  0.57543933  0.91250104  0.92551331     1.39100
O220        O  0.53107454  0.87003897  0.92507062    -1.23600
O221        O  0.75388591  0.95702075  0.32725643    -0.85900
O222        O  0.81325892  0.95371783  0.29205983    -0.82900
C223        C  0.83045191  0.95235556  0.25973455     0.97600
O224        O  0.83619701  0.97396538  0.22943599    -0.83000
O225        O  0.77618934  0.96908035  0.18490353    -0.85600
C226        C  0.74726199  0.97057177  0.17667569     1.02100
O227        O  0.74023889  0.99229530  0.19841627    -0.78400
O228        O  0.72099888  0.95376191  0.27116822    -0.78600
C229        C  0.72459909  0.93950303  0.30396283     1.02000
O230        O  0.80475969  0.03879101  0.34226436    -0.85900
O231        O  0.86269699  0.03290555  0.30534844    -0.83000
C232        C  0.88188696  0.05420491  0.27575960     0.97600
O233        O  0.86680202  0.05306446  0.24099718    -0.83000
O234        O  0.81011043  0.05129887  0.19500149    -0.85600
C235        C  0.80040109  0.07205062  0.21538660     1.02100
O236        O  0.78094340  0.06047373  0.24806406    -0.78400
O237        O  0.74885144  0.02141521  0.31941851    -0.78600
C238        C  0.77496482  0.03983289  0.34557446     1.02000
Cr239      Cr  0.80730404  0.99647983  0.31264023     1.93700
Cr240      Cr  0.81981957  0.01109077  0.21640883     1.93200
Cr241      Cr  0.75159962  0.00691524  0.25957093     1.39100
O242        O  0.79336958  0.00463196  0.26302672    -1.23600
O243        O  0.60885493  0.09726966  0.53355734    -0.85900
O244        O  0.60306296  0.15275853  0.57769897    -0.82900
C245        C  0.60461776  0.17148051  0.61059350     0.97600
O246        O  0.62910383  0.17898471  0.63878167    -0.83000
O247        O  0.62467393  0.11794826  0.67921570    -0.85600
C248        C  0.62573559  0.08831956  0.68457791     1.02100
O249        O  0.64494462  0.08013794  0.66034339    -0.78400
O250        O  0.60484339  0.06276905  0.58727175    -0.78600
C251        C  0.59162501  0.06699809  0.55381670     1.02000
O252        O  0.68826993  0.14996876  0.52215191    -0.85900
O253        O  0.68047360  0.20535082  0.56500215    -0.83000
C254        C  0.70478448  0.22391022  0.59338544     0.97600
O255        O  0.70691840  0.20808014  0.62569952    -0.83000
O256        O  0.70497644  0.15018984  0.66781398    -0.85600
C257        C  0.72462061  0.14117236  0.64489002     1.02100
O258        O  0.71121178  0.12112387  0.61202004    -0.78400
O259        O  0.67161721  0.09278261  0.53952993    -0.78600
C260        C  0.68959099  0.12027050  0.51589174     1.02000
Cr261      Cr  0.64611199  0.15004327  0.55342701     1.93700
Cr262      Cr  0.66542744  0.16138508  0.64903092     1.93200
Cr263      Cr  0.65798777  0.09275248  0.59999577     1.39100
O264        O  0.65630653  0.13505222  0.60081934    -1.23600
O265        O  0.09706970  0.39547596  0.37585480    -0.85900
O266        O  0.08394372  0.41251371  0.45450277    -0.82900
C267        C  0.11411881  0.41944275  0.47192510     0.97600
O268        O  0.14446116  0.44841417  0.46236895    -0.83000
O269        O  0.19666625  0.51112656  0.41837307    -0.85600
C270        C  0.20966320  0.50524888  0.38467340     1.02100
O271        O  0.18827062  0.48726118  0.35405647    -0.78400
O272        O  0.12306334  0.42954571  0.31992520    -0.78600
C273        C  0.11345280  0.40034130  0.34118001     1.02000
O274        O  0.05506160  0.42390413  0.33974983    -0.85900
O275        O  0.05364593  0.45393856  0.41834197    -0.83000
C276        C  0.06414760  0.47117810  0.45346454     0.97600
O277        O  0.09614989  0.48060273  0.46872089    -0.83000
O278        O  0.14622581  0.53900341  0.42137969    -0.85600
C279        C  0.15805648  0.55504298  0.38685626     1.02100
O280        O  0.15952705  0.53720860  0.35438131    -0.78400
O281        O  0.09352728  0.48046195  0.31871276    -0.78600
C282        C  0.06275708  0.44999890  0.31484039     1.02000
Cr283      Cr  0.07602326  0.42513946  0.39663345     1.93700
Cr284      Cr  0.14397778  0.49248151  0.43882476     1.93200
Cr285      Cr  0.13925991  0.48230345  0.34106277     1.39100
O286        O  0.12025806  0.46709780  0.39194238    -1.23600
O287        O  0.92108034  0.38093779  0.04038676    -0.85900
O288        O  0.91128488  0.34276835  0.11345236    -0.82900
C289        C  0.90300545  0.36174240  0.13820398     0.97600
O290        O  0.87324773  0.36211045  0.13225068    -0.83000
O291        O  0.81001254  0.35397168  0.09469253    -0.85600
C292        C  0.81183342  0.37398189  0.06434817     1.02100
O293        O  0.82446317  0.37086308  0.02915104    -0.78400
O294        O  0.88322780  0.37233782  0.98718661    -0.78600
C295        C  0.91291107  0.39323233  0.00871354     1.02000
O296        O  0.89633257  0.31321524  0.99268147    -0.85900
O297        O  0.87176868  0.27391688  0.06644846    -0.83000
C298        C  0.85415483  0.26186301  0.10041018     0.97600
O299        O  0.84310412  0.28099476  0.12176264    -0.83000
O300        O  0.78136930  0.27514799  0.08346182    -0.85600
C301        C  0.76355587  0.27096302  0.04986453     1.02100
O302        O  0.77959470  0.29078300  0.01818663    -0.78400
O303        O  0.83810826  0.29023238  0.97441280    -0.78600
C304        C  0.86948199  0.29291480  0.96806360     1.02000
Cr305      Cr  0.89611297  0.32747977  0.05320533     1.93700
Cr306      Cr  0.82910077  0.31873407  0.10365419     1.93200
Cr307      Cr  0.83299277  0.33033643  0.00633372     1.39100
O308        O  0.85204211  0.32532120  0.05427906    -1.23600
O309        O  0.05431439  0.27604134  0.73375247    -0.85900
O310        O  0.01881437  0.26405990  0.65776852    -0.82900
C311        C  0.03945101  0.25677696  0.63506880     0.97600
O312        O  0.04048861  0.22725905  0.64089705    -0.83000
O313        O  0.03268062  0.16438546  0.67975860    -0.85600
C314        C  0.05192456  0.16758762  0.71210849     1.02100
O315        O  0.04829882  0.18198822  0.74606970    -0.78400
O316        O  0.04380288  0.23891972  0.78715915    -0.78600
C317        C  0.06484784  0.26907910  0.76759343     1.02000
O318        O  0.98481371  0.24838894  0.77601337    -0.85900
O319        O  0.95012943  0.22277528  0.69967774    -0.83000
C320        C  0.93830089  0.20337351  0.66602614     0.97600
O321        O  0.95888727  0.19456380  0.64441913    -0.83000
O322        O  0.95377200  0.13437620  0.68312149    -0.85600
C323        C  0.94977371  0.11624877  0.71580787     1.02100
O324        O  0.96909452  0.13259767  0.74868775    -0.78400
O325        O  0.96204142  0.18943336  0.79008174    -0.78600
C326        C  0.96308956  0.22024805  0.79724602     1.02000
Cr327      Cr  0.00206635  0.24915799  0.71667942     1.93700
Cr328      Cr  0.99714138  0.18238035  0.66613172     1.93200
Cr329      Cr  0.00527256  0.18730521  0.76406929     1.39100
O330        O  0.00160481  0.20572951  0.71559867    -1.23600
O331        O  0.09536184  0.62990985  0.00526770    -0.85900
O332        O  0.15304505  0.62704756  0.96622040    -0.82900
C333        C  0.16867642  0.62506407  0.93286280     0.97600
O334        O  0.17387030  0.64655064  0.90265713    -0.83000
O335        O  0.11317170  0.64001286  0.85924895    -0.85600
C336        C  0.08313615  0.63971598  0.85225339     1.02100
O337        O  0.07450487  0.65930340  0.87560323    -0.78400
O338        O  0.06042729  0.62152620  0.94942309    -0.78600
C339        C  0.06632264  0.60938221  0.98274581     1.02000
O340        O  0.14385717  0.71128101  0.01659852    -0.85900
O341        O  0.20175800  0.70626637  0.97788153    -0.83000
C342        C  0.21968224  0.72751887  0.94789306     0.97600
O343        O  0.20341649  0.72570117  0.91379170    -0.83000
O344        O  0.14474866  0.72167170  0.86991854    -0.85600
C345        C  0.13338006  0.74108205  0.89015744     1.02100
O346        O  0.11364011  0.72856181  0.92268181    -0.78400
O347        O  0.08635409  0.69019301  0.99620045    -0.78600
C348        C  0.11281008  0.70949303  0.02173634     1.02000
Cr349      Cr  0.14711821  0.66945757  0.98724626     1.93700
Cr350      Cr  0.15641663  0.68274199  0.89044796     1.93200
Cr351      Cr  0.08756883  0.67503170  0.93616440     1.39100
O352        O  0.13093035  0.67583161  0.93798928    -1.23600
O353        O  0.94391033  0.76560029  0.20847782    -0.85900
O354        O  0.94083026  0.82270260  0.25229262    -0.82900
C355        C  0.94018393  0.83919573  0.28613090     0.97600
O356        O  0.96148262  0.84301463  0.31680350    -0.83000
O357        O  0.95303080  0.77892365  0.35476003    -0.85600
C358        C  0.95342341  0.74890465  0.35951358     1.02100
O359        O  0.97344240  0.74136232  0.33593027    -0.78400
O360        O  0.93551062  0.72872897  0.26153123    -0.78600
C361        C  0.92407310  0.73502127  0.22788868     1.02000
O362        O  0.02535844  0.81528126  0.20231051    -0.85900
O363        O  0.01979486  0.87215465  0.24592952    -0.83000
C364        C  0.04116403  0.88770519  0.27763349     0.97600
O365        O  0.03962238  0.86897847  0.30875904    -0.83000
O366        O  0.03436190  0.80947608  0.34741315    -0.85600
C367        C  0.05435913  0.80085350  0.32433565     1.02100
O368        O  0.04126722  0.78169048  0.29073776    -0.78400
O369        O  0.00311993  0.75635448  0.21633726    -0.78600
C370        C  0.02422134  0.78447494  0.19480335     1.02000
Cr371      Cr  0.98314801  0.81736238  0.23097384     1.93700
Cr372      Cr  0.99612591  0.82286650  0.32800031     1.93200
Cr373      Cr  0.98833570  0.75560752  0.27641807     1.39100
O374        O  0.98891348  0.79901495  0.27847923    -1.23600
O375        O  0.88421833  0.51506394  0.52573346    -0.85900
O376        O  0.83147789  0.46250491  0.57642974    -0.82900
C377        C  0.81917173  0.44880552  0.61194271     0.97600
O378        O  0.81996275  0.46940484  0.64297632    -0.83000
O379        O  0.88815256  0.52424496  0.67681880    -0.85600
C380        C  0.92101586  0.55216920  0.67848174     1.02100
O381        O  0.93136912  0.57703370  0.65125706    -0.78400
O382        O  0.92695728  0.53970504  0.57588511    -0.78600
C383        C  0.91433033  0.52020180  0.54232359     1.02000
O384        O  0.84304568  0.55532760  0.52856266    -0.85900
O385        O  0.78733524  0.49696620  0.57504839    -0.83000
C386        C  0.77579457  0.50654266  0.60735570     0.97600
O387        O  0.79817948  0.52530596  0.63691965    -0.83000
O388        O  0.86550732  0.58071243  0.66772919    -0.85600
C389        C  0.87823823  0.60906596  0.64412187     1.02100
O390        O  0.89605349  0.61120660  0.61111245    -0.78400
O391        O  0.90399261  0.58576358  0.53458689    -0.78600
C392        C  0.87466315  0.58202866  0.51803278     1.02000
Cr393      Cr  0.83866069  0.51001751  0.55511595     1.93700
Cr394      Cr  0.84485598  0.52585678  0.65186647     1.93200
Cr395      Cr  0.91082676  0.57501928  0.59384802     1.39100
O396        O  0.86428201  0.53664077  0.60063154    -1.23600
C397        C  0.93263206  0.72301020  0.39373898    -0.05800
C398        C  0.93684907  0.73656654  0.43554485    -0.05700
C399        C  0.92370561  0.71140291  0.46874102    -0.23900
C400        C  0.90563662  0.67229757  0.46050877     0.18300
C401        C  0.89884798  0.65843924  0.41835320     0.15600
C402        C  0.91274113  0.68388020  0.38531923    -0.18900
C403        C  0.87987038  0.61937046  0.40997350    -0.20700
C404        C  0.86953691  0.59427194  0.44293732    -0.13300
C405        C  0.87843500  0.60784183  0.48467357     0.03400
C406        C  0.89579188  0.64687176  0.49345139    -0.25400
H407        H  0.95231270  0.76661612  0.44261893     0.08500
H408        H  0.92881318  0.72254790  0.50083567     0.12100
H409        H  0.90932303  0.67330271  0.35303971     0.12000
H410        H  0.87415162  0.60827743  0.37785597     0.11800
H411        H  0.85646921  0.56433495  0.43570009     0.12300
H412        H  0.90274195  0.65741037  0.52573383     0.14200
C413        C  0.10538866  0.72676127  0.05934342    -0.05800
C414        C  0.10599579  0.71357354  0.09934688    -0.05700
C415        C  0.09176371  0.72363512  0.13428472    -0.23900
C416        C  0.07723689  0.74765421  0.12997889     0.18300
C417        C  0.07845548  0.76285675  0.09032591     0.15600
C418        C  0.09194549  0.75180365  0.05508464    -0.18900
C419        C  0.06501804  0.78786137  0.08645339    -0.20700
C420        C  0.04926140  0.79660262  0.12106396    -0.13300
C421        C  0.04586191  0.77987251  0.15993785     0.03400
C422        C  0.06050370  0.75581810  0.16428950    -0.25400
H423        H  0.11561064  0.69378803  0.10312371     0.08500
H424        H  0.09127768  0.71188320  0.16447702     0.12100
H425        H  0.09110900  0.76183696  0.02420143     0.12000
H426        H  0.06601668  0.80008948  0.05642974     0.11800
H427        H  0.03812390  0.81507793  0.11692423     0.12300
H428        H  0.05833001  0.74300502  0.19427153     0.14200
C429        C  0.94686959  0.55783440  0.71404521    -0.05800
C430        C  0.93252290  0.54642856  0.75458391    -0.05700
C431        C  0.95652600  0.55795565  0.78971883    -0.23900
C432        C  0.99550669  0.58055113  0.78499404     0.18300
C433        C  0.01053105  0.58960718  0.74410298     0.15600
C434        C  0.98614112  0.57860106  0.70894925    -0.18900
C435        C  0.04964254  0.61093088  0.73934029    -0.20700
C436        C  0.07345855  0.62496210  0.77471377    -0.13300
C437        C  0.05864707  0.61858781  0.81549732     0.03400
C438        C  0.01958226  0.59556693  0.82041445    -0.25400
H439        H  0.90252812  0.53045501  0.75944662     0.08500
H440        H  0.94448951  0.55020991  0.82075464     0.12100
H441        H  0.99764502  0.58723423  0.67781532     0.12000
H442        H  0.06177216  0.61777627  0.70826067     0.11800
H443        H  0.10337043  0.64267134  0.77018630     0.12300
H444        H  0.00790792  0.59028893  0.85179951     0.14200
C445        C  0.94111552  0.22475668  0.83205061    -0.05800
C446        C  0.94237986  0.21266443  0.87251423    -0.05700
C447        C  0.92662178  0.22166579  0.90691692    -0.23900
C448        C  0.90837292  0.24219367  0.90147651     0.18300
C449        C  0.90470403  0.25244787  0.86053788     0.15600
C450        C  0.92168316  0.24428383  0.82618978    -0.18900
C451        C  0.88512585  0.27171250  0.85504675    -0.20700
C452        C  0.87097362  0.28228429  0.88987230    -0.13300
C453        C  0.87667327  0.27445840  0.93096995     0.03400
C454        C  0.89491455  0.25376765  0.93638506    -0.25400
H455        H  0.95723011  0.19779862  0.87789471     0.08500
H456        H  0.92939746  0.21321222  0.93799062     0.12100
H457        H  0.92028214  0.25355876  0.79505766     0.12000
H458        H  0.88163248  0.27951632  0.82390027     0.11800
H459        H  0.85748817  0.29853589  0.88487846     0.12300
H460        H  0.89957050  0.24764051  0.96794712     0.14200
C461        C  0.03910484  0.57070880  0.99522018    -0.05800
C462        C  0.04267626  0.55741084  0.03406361    -0.05700
C463        C  0.01840919  0.51997449  0.04440403    -0.23900
C464        C  0.99039159  0.49524799  0.01592426     0.18300
C465        C  0.98620354  0.50846663  0.97704978     0.15600
C466        C  0.01043942  0.54611348  0.96705124    -0.18900
C467        C  0.95811631  0.48370236  0.94862257    -0.20700
C468        C  0.93433368  0.44604314  0.95864097    -0.13300
C469        C  0.93848270  0.43259836  0.99709781     0.03400
C470        C  0.96661521  0.45746967  0.02562336    -0.25400
H471        H  0.06450672  0.57582518  0.05626867     0.08500
H472        H  0.02184382  0.51024770  0.07442025     0.12100
H473        H  0.00747055  0.55596616  0.93688079     0.12000
H474        H  0.95456137  0.49344893  0.91867914     0.11800
H475        H  0.91275678  0.42744518  0.93628840     0.12300
H476        H  0.96985146  0.44757055  0.05564289     0.14200
C477        C  0.03834837  0.47921955  0.47732687    -0.05800
C478        C  0.04739073  0.49466886  0.51844593    -0.05700
C479        C  0.02357470  0.50372995  0.54024551    -0.23900
C480        C  0.99061906  0.49780488  0.52102953     0.18300
C481        C  0.98075925  0.48130496  0.48012346     0.15600
C482        C  0.00453286  0.47184784  0.45867976    -0.18900
C483        C  0.94784186  0.47554647  0.46089783    -0.20700
C484        C  0.92559931  0.48743550  0.48146033    -0.13300
C485        C  0.93593619  0.50503135  0.52156020     0.03400
C486        C  0.96799917  0.50922421  0.54157520    -0.25400
H487        H  0.07307630  0.50014693  0.53360453     0.08500
H488        H  0.03133725  0.51614096  0.57172418     0.12100
H489        H  0.99713819  0.45970364  0.42703875     0.12000
H490        H  0.93980271  0.46270529  0.42963019     0.11800
H491        H  0.90079899  0.48360774  0.46561644     0.12300
H492        H  0.97600075  0.52232976  0.57275409     0.14200
C493        C  0.05970137  0.28185697  0.60004558    -0.05800
C494        C  0.05323025  0.26726658  0.55855452    -0.05700
C495        C  0.06545278  0.29153207  0.52459454    -0.23900
C496        C  0.08489420  0.33079646  0.53166411     0.18300
C497        C  0.09398888  0.34572505  0.57332995     0.15600
C498        C  0.08088071  0.32114673  0.60727222    -0.18900
C499        C  0.11441048  0.38500433  0.58031291    -0.20700
C500        C  0.12377900  0.40925111  0.54656633    -0.13300
C501        C  0.11236754  0.39460253  0.50548286     0.03400
C502        C  0.09372468  0.35534284  0.49805302    -0.25400
H503        H  0.03666110  0.23711205  0.55242490     0.08500
H504        H  0.05855632  0.27959680  0.49285885     0.12100
H505        H  0.08590599  0.33252552  0.63930003     0.12000
H506        H  0.12193966  0.39695277  0.61199318     0.11800
H507        H  0.13781879  0.43939595  0.55285923     0.12300
H508        H  0.08481712  0.34394418  0.46632671     0.14200
C509        C  0.03667586  0.44307651  0.27929305    -0.05800
C510        C  0.05080184  0.45840423  0.23983312    -0.05700
C511        C  0.02719159  0.44695726  0.20437992    -0.23900
C512        C  0.98879589  0.42050597  0.20784742     0.18300
C513        C  0.97385448  0.40666797  0.24786946     0.15600
C514        C  0.99791982  0.41762439  0.28315954    -0.18900
C515        C  0.93525328  0.38119612  0.25164801    -0.20700
C516        C  0.91190678  0.36853302  0.21599622    -0.13300
C517        C  0.92678518  0.38046147  0.17585050     0.03400
C518        C  0.96527342  0.40679513  0.17194794    -0.25400
H519        H  0.08051503  0.47781365  0.23595377     0.08500
H520        H  0.03913170  0.45817491  0.17406987     0.12100
H521        H  0.98665048  0.40572897  0.31346910     0.12000
H522        H  0.92323228  0.37045404  0.28207412     0.11800
H523        H  0.88243904  0.34793614  0.21951852     0.12300
H524        H  0.97691633  0.41601687  0.14097219     0.14200
C525        C  0.89963392  0.19052510  0.65334060    -0.05800
C526        C  0.88336091  0.16767185  0.61715724    -0.05700
C527        C  0.84537076  0.15300841  0.60843686    -0.23900
C528        C  0.82342646  0.16083519  0.63607207     0.18300
C529        C  0.83983481  0.18402807  0.67228864     0.15600
C530        C  0.87771055  0.19892240  0.68038583    -0.18900
C531        C  0.81811004  0.19177166  0.70019636    -0.20700
C532        C  0.78018813  0.17699748  0.69196127    -0.13300
C533        C  0.76367868  0.15429959  0.65579364     0.03400
C534        C  0.78538973  0.14601385  0.62812417    -0.25400
H535        H  0.89975928  0.16066313  0.59613084     0.08500
H536        H  0.83307388  0.13523955  0.58049129     0.12100
H537        H  0.88981849  0.21638042  0.70861040     0.12000
H538        H  0.83050390  0.20944949  0.72818972     0.11800
H539        H  0.76395461  0.18378599  0.71351842     0.12300
H540        H  0.77293007  0.12858507  0.59996753     0.14200
C541        C  0.80191100  0.40745743  0.61605338    -0.05800
C542        C  0.79662602  0.39117800  0.65557343    -0.05700
C543        C  0.77863486  0.35191761  0.65885594    -0.23900
C544        C  0.76492895  0.32822460  0.62272763     0.18300
C545        C  0.77003732  0.34435938  0.58288342     0.15600
C546        C  0.78885238  0.38369907  0.57977957    -0.18900
C547        C  0.75538965  0.32089196  0.54681932    -0.20700
C548        C  0.73506577  0.28173410  0.55021565    -0.13300
C549        C  0.72959306  0.26521227  0.58961357     0.03400
C550        C  0.74523840  0.28872818  0.62578522    -0.25400
H551        H  0.80635049  0.40881289  0.68393632     0.08500
H552        H  0.77483826  0.34006639  0.68970980     0.12100
H553        H  0.79222425  0.39576575  0.54908335     0.12000
H554        H  0.75894235  0.33283967  0.51604788     0.11800
H555        H  0.72322880  0.26431269  0.52196913     0.12300
H556        H  0.74072151  0.27637542  0.65645629     0.14200
C557        C  0.81020093  0.10946942  0.20035126    -0.05800
C558        C  0.80252231  0.13335568  0.22563255    -0.05700
C559        C  0.81005623  0.16812421  0.21126996    -0.23900
C560        C  0.82532270  0.17961362  0.17132611     0.18300
C561        C  0.83365886  0.15611507  0.14587041     0.15600
C562        C  0.82620749  0.12125621  0.16061534    -0.18900
C563        C  0.84892942  0.16771271  0.10589658    -0.20700
C564        C  0.85571342  0.20218676  0.09117057    -0.13300
C565        C  0.84730614  0.22561537  0.11617432     0.03400
C566        C  0.83214560  0.21411744  0.15633999    -0.25400
H567        H  0.79040852  0.12507665  0.25655310     0.08500
H568        H  0.80364165  0.18585308  0.23124868     0.12100
H569        H  0.83224625  0.10309641  0.14089222     0.12000
H570        H  0.85546204  0.15006089  0.08594730     0.11800
H571        H  0.86734316  0.21038627  0.06004242     0.12300
H572        H  0.82562022  0.23196013  0.17598917     0.14200
C573        C  0.70999945  0.11577570  0.47967383    -0.05800
C574        C  0.70185803  0.12108742  0.43855864    -0.05700
C575        C  0.71494959  0.10944683  0.40379026    -0.23900
C576        C  0.73702570  0.09289591  0.40952847     0.18300
C577        C  0.74774882  0.09005813  0.45071057     0.15600
C578        C  0.73373950  0.10101298  0.48552725    -0.18900
C579        C  0.77101410  0.07484506  0.45633455    -0.20700
C580        C  0.78185369  0.06068307  0.42176742    -0.13300
C581        C  0.76905101  0.06073608  0.38100604     0.03400
C582        C  0.74731453  0.07779025  0.37504251    -0.25400
H583        H  0.68348223  0.13214930  0.43335225     0.08500
H584        H  0.70680898  0.11229295  0.37243935     0.12100
H585        H  0.74028051  0.09695530  0.51719823     0.12000
H586        H  0.77996409  0.07291118  0.48761798     0.11800
H587        H  0.79860464  0.04781705  0.42719026     0.12300
H588        H  0.73764158  0.07843393  0.34366377     0.14200
C589        C  0.84583976  0.92633865  0.25801732    -0.05800
C590        C  0.85335839  0.91453199  0.21909287    -0.05700
C591        C  0.87091593  0.89301277  0.21707046    -0.23900
C592        C  0.88229262  0.88347503  0.25394431     0.18300
C593        C  0.87489391  0.89495162  0.29336447     0.15600
C594        C  0.85619451  0.91573176  0.29520502    -0.18900
C595        C  0.88743654  0.88646294  0.33014760    -0.20700
C596        C  0.90782365  0.86768244  0.32788952    -0.13300
C597        C  0.91554821  0.85614761  0.28887040     0.03400
C598        C  0.90198310  0.86373700  0.25196649    -0.25400
H599        H  0.84591569  0.92227420  0.19002251     0.08500
H600        H  0.87643409  0.88460613  0.18651010     0.12100
H601        H  0.85121453  0.92506074  0.32551213     0.12000
H602        H  0.88222878  0.89513136  0.36071759     0.11800
H603        H  0.91790619  0.86249913  0.35678958     0.12300
H604        H  0.90804382  0.85563959  0.22150874     0.14200
C605        C  0.72239054  0.94898578  0.14036427    -0.05800
C606        C  0.73684783  0.95485343  0.09944667    -0.05700
C607        C  0.71274996  0.94005903  0.06437847    -0.23900
C608        C  0.67370761  0.91845335  0.06959752     0.18300
C609        C  0.65902355  0.90987436  0.11066576     0.15600
C610        C  0.68339635  0.92570895  0.14580542    -0.18900
C611        C  0.62007130  0.88699076  0.11575948    -0.20700
C612        C  0.59576139  0.87485388  0.08078417    -0.13300
C613        C  0.60981950  0.88591121  0.04011380     0.03400
C614        C  0.64903283  0.90685972  0.03467849    -0.25400
H615        H  0.76669134  0.97268541  0.09454947     0.08500
H616        H  0.72459697  0.94652851  0.03314134     0.12100
H617        H  0.67201568  0.92082258  0.17732847     0.12000
H618        H  0.60828187  0.87962935  0.14694667     0.11800
H619        H  0.56579181  0.85897508  0.08584311     0.12300
H620        H  0.66023666  0.91542136  0.00341145     0.14200
C621        C  0.60676077  0.06385762  0.72049040    -0.05800
C622        C  0.61726184  0.07820856  0.76182802    -0.05700
C623        C  0.60502350  0.05387284  0.79575018    -0.23900
C624        C  0.58151431  0.01482126  0.78889128     0.18300
C625        C  0.56870663  0.00043379  0.74763149     0.15600
C626        C  0.58189246  0.02497834  0.71361601    -0.18900
C627        C  0.54414849  0.96154505  0.74097778    -0.20700
C628        C  0.53392263  0.93690555  0.77446569    -0.13300
C629        C  0.54866342  0.95060225  0.81497051     0.03400
C630        C  0.57184495  0.98976023  0.82218751    -0.25400
H631        H  0.63664398  0.10801410  0.76764095     0.08500
H632        H  0.61483374  0.06546876  0.82719539     0.12100
H633        H  0.57372843  0.01378126  0.68170076     0.12000
H634        H  0.53372267  0.95004968  0.70965186     0.11800
H635        H  0.51624118  0.90687231  0.76822800     0.12300
H636        H  0.58318413  0.00053943  0.85346250     0.14200
C637        C  0.26100070  0.75326518  0.95150602    -0.05800
C638        C  0.27927953  0.76328631  0.99089241    -0.05700
C639        C  0.31855374  0.78392389  0.99366991    -0.23900
C640        C  0.34037731  0.79422776  0.95707759     0.18300
C641        C  0.32225194  0.78481028  0.91737848     0.15600
C642        C  0.28289027  0.76499566  0.91487256    -0.18900
C643        C  0.34372857  0.79407735  0.88069905    -0.20700
C644        C  0.38270133  0.81133988  0.88317768    -0.13300
C645        C  0.40126551  0.82021763  0.92237080     0.03400
C646        C  0.37983916  0.81236271  0.95936944    -0.25400
H647        H  0.26317749  0.75459153  0.01958353     0.08500
H648        H  0.33184489  0.79082500  0.02443159     0.12100
H649        H  0.26932381  0.75708714  0.88422471     0.12000
H650        H  0.33030540  0.78702849  0.84999782     0.11800
H651        H  0.39831599  0.81703976  0.85417999     0.12300
H652        H  0.39362674  0.81866516  0.98982661     0.14200
C653        C  0.09354860  0.81341887  0.33546296    -0.05800
C654        C  0.11221222  0.83970807  0.36852825    -0.05700
C655        C  0.15042608  0.85400171  0.37570585    -0.23900
C656        C  0.17035435  0.84208535  0.34995997     0.18300
C657        C  0.15159153  0.81517717  0.31708772     0.15600
C658        C  0.11350544  0.80114866  0.31007699    -0.18900
C659        C  0.17112646  0.80249416  0.29184720    -0.20700
C660        C  0.20888030  0.81566032  0.29985379    -0.13300
C661        C  0.22769099  0.84241170  0.33235390     0.03400
C662        C  0.20853929  0.85603041  0.35692694    -0.25400
H663        H  0.09749421  0.84980414  0.38820678     0.08500
H664        H  0.16441724  0.87447148  0.40120262     0.12100
H665        H  0.09952262  0.78086559  0.28438553     0.12000
H666        H  0.15701840  0.78183277  0.26654390     0.11800
H667        H  0.22334093  0.80473968  0.28098251     0.12300
H668        H  0.22294117  0.87612554  0.38267124     0.14200
C669        C  0.42962043  0.95488753  0.46990236    -0.05800
C670        C  0.44307838  0.99147480  0.45567635    -0.05700
C671        C  0.47835042  0.02062449  0.46815621    -0.23900
C672        C  0.50020118  0.01351548  0.49545991     0.18300
C673        C  0.48663241  0.97668801  0.51002314     0.15600
C674        C  0.45156567  0.94752361  0.49677539    -0.18900
C675        C  0.50813269  0.96972328  0.53800593    -0.20700
C676        C  0.54260487  0.99923600  0.55207469    -0.13300
C677        C  0.55612947  0.03585807  0.53777567     0.03400
C678        C  0.53510818  0.04277422  0.50903358    -0.25400
H679        H  0.42653835  0.99739864  0.43439764     0.08500
H680        H  0.48839726  0.04868345  0.45674311     0.12100
H681        H  0.44112882  0.91925793  0.50783671     0.12000
H682        H  0.49809171  0.94166074  0.54940745     0.11800
H683        H  0.55868034  0.99341899  0.57416217     0.12300
H684        H  0.54539429  0.07107879  0.49819268     0.14200
C685        C  0.25081160  0.73652742  0.41748618    -0.05800
C686        C  0.24078525  0.71925437  0.45659957    -0.05700
C687        C  0.21754246  0.68010082  0.45858660    -0.23900
C688        C  0.20406779  0.65779189  0.42146617     0.18300
C689        C  0.21256933  0.67525153  0.38214123     0.15600
C690        C  0.23558211  0.71443803  0.38046529    -0.18900
C691        C  0.19952293  0.65311457  0.34497441    -0.20700
C692        C  0.18014972  0.61384299  0.34654850    -0.13300
C693        C  0.17294327  0.59608528  0.38533524     0.03400
C694        C  0.18384422  0.61830848  0.42282994    -0.25400
H695        H  0.25228581  0.73577621  0.48546630     0.08500
H696        H  0.21121229  0.66716601  0.48901960     0.12100
H697        H  0.24291106  0.72762598  0.35013712     0.12000
H698        H  0.20562028  0.66615566  0.31460399     0.11800
H699        H  0.17181317  0.59736070  0.31732477     0.12300
H700        H  0.17859210  0.60498423  0.45299290     0.14200
C701        C  0.21611479  0.94518414  0.61483101    -0.05800
C702        C  0.19816351  0.93905098  0.57561330    -0.05700
C703        C  0.20793069  0.92355201  0.54126247    -0.23900
C704        C  0.23543167  0.91343023  0.54575290     0.18300
C705        C  0.25196290  0.91763614  0.58577565     0.15600
C706        C  0.24245312  0.93363553  0.61973518    -0.18900
C707        C  0.27864411  0.90681367  0.59108145    -0.20700
C708        C  0.29014766  0.89340455  0.55680906    -0.13300
C709        C  0.27564747  0.89085465  0.51616281     0.03400
C710        C  0.24756028  0.90026426  0.51097616    -0.25400
H711        H  0.17778884  0.94773144  0.57106453     0.08500
H712        H  0.19459388  0.92026786  0.51101002     0.12100
H713        H  0.25616009  0.93780529  0.64998033     0.12000
H714        H  0.29131964  0.90953978  0.62164554     0.11800
H715        H  0.31170087  0.88642604  0.56200346     0.12300
H716        H  0.23590729  0.89825988  0.47995889     0.14200
C717        C  0.18713331  0.89925888  0.79666809    -0.05800
C718        C  0.20171415  0.87913005  0.77532689    -0.05700
C719        C  0.19468484  0.84441989  0.78966593    -0.23900
C720        C  0.17283132  0.82913388  0.82551115     0.18300
C721        C  0.15847540  0.84938444  0.84745490     0.15600
C722        C  0.16578158  0.88427075  0.83300841    -0.18900
C723        C  0.13668605  0.83425270  0.88330384    -0.20700
C724        C  0.12872700  0.79913973  0.89705447    -0.13300
C725        C  0.14240750  0.77843019  0.87524715     0.03400
C726        C  0.16477883  0.79381842  0.83956740    -0.25400
H727        H  0.21842256  0.89009364  0.74731938     0.08500
H728        H  0.20605097  0.82939870  0.77250979     0.12100
H729        H  0.15445615  0.89950085  0.84983926     0.12000
H730        H  0.12557057  0.84945455  0.90057443     0.11800
H731        H  0.11163679  0.78813461  0.92479756     0.12300
H732        H  0.17572575  0.77830231  0.82261106     0.14200
C733        C  0.14123226  0.07716191  0.74371806    -0.05800
C734        C  0.13115360  0.08660055  0.78251993    -0.05700
C735        C  0.11460143  0.10904382  0.78432564    -0.23900
C736        C  0.10698599  0.12181027  0.74726416     0.18300
C737        C  0.11744338  0.11296863  0.70813248     0.15600
C738        C  0.13497242  0.09129544  0.70666963    -0.18900
C739        C  0.10887552  0.12469888  0.67095379    -0.20700
C740        C  0.08877686  0.14364029  0.67234539    -0.13300
C741        C  0.07749785  0.15202228  0.71097077     0.03400
C742        C  0.08769917  0.14184592  0.74849250    -0.25400
H743        H  0.13567010  0.07623433  0.81148579     0.08500
H744        H  0.10676864  0.11550183  0.81464976     0.12100
H745        H  0.14220673  0.08403350  0.67640733     0.12000
H746        H  0.11667165  0.11815653  0.64065005     0.11800
H747        H  0.08138450  0.15109370  0.64304434     0.12300
H748        H  0.07888981  0.14769242  0.77854500     0.14200
C749        C  0.47336525  0.04970895  0.00653911    -0.05800
C750        C  0.48666197  0.05213868  0.96536156    -0.05700
C751        C  0.50187579  0.03009468  0.95222230    -0.23900
C752        C  0.50431691  0.00575259  0.98030471     0.18300
C753        C  0.49099646  0.00324395  0.02176745     0.15600
C754        C  0.47549802  0.02505760  0.03448415    -0.18900
C755        C  0.49331534  0.97891620  0.04989560    -0.20700
C756        C  0.50801375  0.95649350  0.03675292    -0.13300
C757        C  0.52099102  0.95851802  0.99551802     0.03400
C758        C  0.51949521  0.98358448  0.96756132    -0.25400
H759        H  0.48532839  0.07105868  0.94343822     0.08500
H760        H  0.51189372  0.03221327  0.92026815     0.12100
H761        H  0.46571661  0.02330938  0.06653553     0.12000
H762        H  0.48328732  0.97685592  0.08184013     0.11800
H763        H  0.50887629  0.93730025  0.05865529     0.12300
H764        H  0.52903859  0.98500335  0.93544701     0.14200
C765        C  0.26860329  0.05767378  0.85489634    -0.05800
C766        C  0.25438258  0.05861846  0.89488167    -0.05700
C767        C  0.27836827  0.07341035  0.93013303    -0.23900
C768        C  0.31719515  0.08830079  0.92595585     0.18300
C769        C  0.33208456  0.08991972  0.88542182     0.15600
C770        C  0.30771991  0.07419026  0.85034970    -0.18900
C771        C  0.37099018  0.10596900  0.88089778    -0.20700
C772        C  0.39473424  0.11861009  0.91628395    -0.13300
C773        C  0.38008546  0.11492629  0.95695111     0.03400
C774        C  0.34121848  0.10023090  0.96157247    -0.25400
H775        H  0.22447054  0.04608825  0.89925124     0.08500
H776        H  0.26641071  0.07230515  0.96084795     0.12100
H777        H  0.31909847  0.07398344  0.81958403     0.12000
H778        H  0.38296839  0.10773576  0.85004746     0.11800
H779        H  0.42439727  0.12927521  0.91204118     0.12300
H780        H  0.32962385  0.09703178  0.99288143     0.14200
C781        C  0.38327620  0.94114839  0.28507567    -0.05800
C782        C  0.36876722  0.92715125  0.24442335    -0.05700
C783        C  0.37859956  0.95130166  0.21064400    -0.23900
C784        C  0.40368140  0.99006515  0.21646013     0.18300
C785        C  0.42042852  0.00442398  0.25643025     0.15600
C786        C  0.40987730  0.97994742  0.29065685    -0.18900
C787        C  0.44647215  0.04319622  0.26157451    -0.20700
C788        C  0.45457805  0.06757240  0.22801519    -0.13300
C789        C  0.43630421  0.05380138  0.18890696     0.03400
C790        C  0.41136449  0.01478860  0.18323874    -0.25400
H791        H  0.34822347  0.89759486  0.23902704     0.08500
H792        H  0.36578722  0.93973611  0.18012681     0.12100
H793        H  0.42150330  0.99122135  0.32169484     0.12000
H794        H  0.45995894  0.05480556  0.29178759     0.11800
H795        H  0.47388591  0.09747379  0.23319668     0.12300
H796        H  0.39741133  0.00375072  0.15308843     0.14200
C797        C  0.72239855  0.24430703  0.04920176    -0.05800
C798        C  0.70264047  0.22914823  0.01118026    -0.05700
C799        C  0.66334230  0.20845902  0.01058805    -0.23900
C800        C  0.64308374  0.20357489  0.04785588     0.18300
C801        C  0.66266550  0.21777620  0.08639761     0.15600
C802        C  0.70206495  0.23730185  0.08692262    -0.18900
C803        C  0.64259511  0.21391059  0.12350537    -0.20700
C804        C  0.60361189  0.19770667  0.12222983    -0.13300
C805        C  0.58376201  0.18444134  0.08393690     0.03400
C806        C  0.60376612  0.18646974  0.04696728    -0.25400
H807        H  0.71759456  0.23404866  0.98179319     0.08500
H808        H  0.64880432  0.19764954  0.98073015     0.12100
H809        H  0.71688519  0.24916753  0.11647123     0.12000
H810        H  0.65718297  0.22462267  0.15335546     0.11800
H811        H  0.58909580  0.19639935  0.15116709     0.12300
H812        H  0.58901193  0.17643734  0.01711259     0.14200
C813        C  0.29074910  0.19761746  0.20628658    -0.05800
C814        C  0.32811165  0.22045276  0.21988649    -0.05700
C815        C  0.35521158  0.21163280  0.20758414    -0.23900
C816        C  0.34512616  0.17952653  0.18208745     0.18300
C817        C  0.30752939  0.15654389  0.16823233     0.15600
C818        C  0.28069845  0.16593147  0.18010821    -0.18900
C819        C  0.29727013  0.12437729  0.14291192    -0.20700
C820        C  0.32416821  0.11538146  0.13069132    -0.13300
C821        C  0.36164205  0.13822059  0.14390098     0.03400
C822        C  0.37195719  0.17006681  0.17002304    -0.25400
H823        H  0.33631054  0.24504763  0.24018583     0.08500
H824        H  0.38388406  0.22962724  0.21836063     0.12100
H825        H  0.25178694  0.14796589  0.16999435     0.12000
H826        H  0.26856025  0.10640600  0.13222777     0.11800
H827        H  0.31571137  0.09066064  0.11051599     0.12300
H828        H  0.40093927  0.18800986  0.17986834     0.14200
C829        C  0.12278481  0.37204045  0.32697209    -0.05800
C830        C  0.14028068  0.37500221  0.28823301    -0.05700
C831        C  0.15428468  0.35137439  0.27830968    -0.23900
C832        C  0.15145645  0.32514569  0.30738978     0.18300
C833        C  0.13267229  0.32104173  0.34576252     0.15600
C834        C  0.11789981  0.34408001  0.35495758    -0.18900
C835        C  0.13026254  0.29502352  0.37498225    -0.20700
C836        C  0.14732133  0.27380606  0.36657119    -0.13300
C837        C  0.16685801  0.27858331  0.32893140     0.03400
C838        C  0.16813244  0.30376100  0.29917523    -0.25400
H839        H  0.14421242  0.39631384  0.26629826     0.08500
H840        H  0.16850335  0.35453251  0.24863896     0.12100
H841        H  0.10442690  0.34152116  0.38504482     0.12000
H842        H  0.11579136  0.29159393  0.40452216     0.11800
H843        H  0.14558705  0.25407850  0.38951394     0.12300
H844        H  0.18245550  0.30709944  0.26951219     0.14200
C845        C  0.14697388  0.07010659  0.26313563    -0.05800
C846        C  0.14600347  0.05276992  0.22387224    -0.05700
C847        C  0.12622266  0.01349257  0.21858247    -0.23900
C848        C  0.10720617  0.99071036  0.25250436     0.18300
C849        C  0.10994894  0.00786987  0.29262235     0.15600
C850        C  0.12972868  0.04728718  0.29767822    -0.18900
C851        C  0.09177765  0.98539099  0.32688815    -0.20700
C852        C  0.07040375  0.94640076  0.32141038    -0.13300
C853        C  0.06621505  0.92895928  0.28148244     0.03400
C854        C  0.08485980  0.95124008  0.24696833    -0.25400
H855        H  0.15912102  0.06958396  0.19660403     0.08500
H856        H  0.12493878  0.00101350  0.18770893     0.12100
H857        H  0.13033221  0.06014099  0.32813589     0.12000
H858        H  0.09362098  0.99798006  0.35784611     0.11800
H859        H  0.05608285  0.92980911  0.34846453     0.12300
H860        H  0.08195609  0.93798154  0.21617366     0.14200
C861        C  0.92333530  0.07920029  0.28049620    -0.05800
C862        C  0.94056528  0.09006897  0.32041015    -0.05700
C863        C  0.97978855  0.11005547  0.32449301    -0.23900
C864        C  0.00264888  0.11877141  0.28877046     0.18300
C865        C  0.98569053  0.10854638  0.24847530     0.15600
C866        C  0.94633496  0.08948367  0.24457912    -0.18900
C867        C  0.00831617  0.11630091  0.21276783    -0.20700
C868        C  0.04725222  0.13296874  0.21689937    -0.13300
C869        C  0.06467435  0.14284479  0.25678847     0.03400
C870        C  0.04200389  0.13627357  0.29266433    -0.25400
H871        H  0.92366234  0.08259119  0.34854130     0.08500
H872        H  0.99221989  0.11767928  0.35569739     0.12100
H873        H  0.93359114  0.08096825  0.21354370     0.12000
H874        H  0.99580517  0.10862486  0.18159789     0.11800
H875        H  0.06373009  0.13767489  0.18872278     0.12300
H876        H  0.05477807  0.14347430  0.32371803     0.14200
C877        C  0.38523430  0.24373619  0.68361252    -0.05800
C878        C  0.39227537  0.22746853  0.71772142    -0.05700
C879        C  0.36769861  0.18969148  0.72624361    -0.23900
C880        C  0.33673974  0.16766694  0.69972209     0.18300
C881        C  0.32966997  0.18398260  0.66515951     0.15600
C882        C  0.35359248  0.22218084  0.65788555    -0.18900
C883        C  0.29935766  0.16164531  0.63796264    -0.20700
C884        C  0.27594155  0.12333212  0.64522895    -0.13300
C885        C  0.28256025  0.10704302  0.67983822     0.03400
C886        C  0.31307480  0.12946356  0.70690751    -0.25400
H887        H  0.41692429  0.24388866  0.73736663     0.08500
H888        H  0.37343743  0.17744680  0.75280580     0.12100
H889        H  0.34870120  0.23470139  0.63095404     0.12000
H890        H  0.29380696  0.17378301  0.61115153     0.11800
H891        H  0.25243972  0.10661357  0.62415302     0.12300
H892        H  0.31845062  0.11728241  0.73382877     0.14200
C893        C  0.36559940  0.26473690  0.50668626    -0.05800
C894        C  0.32908160  0.24078667  0.52165246    -0.05700
C895        C  0.29824097  0.22289553  0.49392501    -0.23900
C896        C  0.30301749  0.22879605  0.45048353     0.18300
C897        C  0.33974691  0.25147743  0.43491202     0.15600
C898        C  0.37067881  0.26884439  0.46288652    -0.18900
C899        C  0.34483156  0.25810284  0.39175098    -0.20700
C900        C  0.31393576  0.24439538  0.36467113    -0.13300
C901        C  0.27713850  0.22302643  0.37968903     0.03400
C902        C  0.27179266  0.21419600  0.42263311    -0.25400
H903        H  0.32410679  0.23680601  0.55508822     0.08500
H904        H  0.27046714  0.20553337  0.50668274     0.12100
H905        H  0.39847073  0.28721177  0.45064053     0.12000
H906        H  0.37270030  0.27529371  0.37913553     0.11800
H907        H  0.31875937  0.25165984  0.33183073     0.12300
H908        H  0.24356520  0.19829204  0.43474463     0.14200
C909        C  0.73499435  0.49326863  0.61205245    -0.05800
C910        C  0.72016681  0.49404674  0.65189515    -0.05700
C911        C  0.68128556  0.47633065  0.65805702    -0.23900
C912        C  0.65617400  0.45759411  0.62445141     0.18300
C913        C  0.67085640  0.45831661  0.58392039     0.15600
C914        C  0.70991183  0.47596849  0.57798726    -0.18900
C915        C  0.64620905  0.44022360  0.55006050    -0.20700
C916        C  0.60755662  0.42017847  0.55638070    -0.13300
C917        C  0.59213710  0.41734379  0.59677494     0.03400
C918        C  0.61682327  0.43713004  0.63073991    -0.25400
H919        H  0.73861263  0.50703429  0.67885753     0.08500
H920        H  0.67086701  0.47646225  0.68937425     0.12100
H921        H  0.72069031  0.47513287  0.54705113     0.12000
H922        H  0.65684226  0.44074474  0.51869247     0.11800
H923        H  0.58962641  0.40582752  0.52935991     0.12300
H924        H  0.60565883  0.43536849  0.66205651     0.14200
C925        C  0.51032044  0.25852765  0.59020637    -0.05800
C926        C  0.50880994  0.23963304  0.55203702    -0.05700
C927        C  0.52443234  0.21631677  0.54893361    -0.23900
C928        C  0.54181658  0.21132730  0.58397818     0.18300
C929        C  0.54205483  0.22891379  0.62287960     0.15600
C930        C  0.52628885  0.25215753  0.62575889    -0.26100
C931        C  0.55931424  0.22414046  0.65801026    -0.20700
C932        C  0.57787822  0.20379867  0.65426512    -0.13300
C933        C  0.57939828  0.18738649  0.61540997     0.03400
C934        C  0.56021774  0.19037736  0.58052622    -0.25400
H935        H  0.49670659  0.24390692  0.52418374     0.08500
H936        H  0.52377789  0.20297788  0.51882421     0.12100
H937        H  0.52742835  0.26617744  0.65557399     0.12000
H938        H  0.55952954  0.23720415  0.68816821     0.11800
H939        H  0.59212203  0.20192169  0.68169173     0.12300
H940        H  0.56120210  0.17810585  0.55027038     0.14200
C941        C  0.44264004  0.40225095  0.71974043    -0.05800
C942        C  0.45020015  0.39665217  0.76114074    -0.05700
C943        C  0.43602292  0.40703429  0.79587100    -0.23900
C944        C  0.41413679  0.42372216  0.79032934     0.18300
C945        C  0.40781944  0.43153720  0.74921809     0.15600
C946        C  0.42188641  0.42057769  0.71415541    -0.18900
C947        C  0.38660579  0.44916332  0.74404960    -0.20700
C948        C  0.37112364  0.45799981  0.77903222    -0.13300
C949        C  0.37583817  0.44874055  0.81985068     0.03400
C950        C  0.39770443  0.43180441  0.82516352    -0.25400
H951        H  0.46579609  0.38259971  0.76678718     0.08500
H952        H  0.44147591  0.40114333  0.82716912     0.12100
H953        H  0.41559715  0.42516715  0.68262384     0.12000
H954        H  0.38146209  0.45556939  0.71287967     0.11800
H955        H  0.35410562  0.47063836  0.77401566     0.12300
H956        H  0.40154513  0.42451074  0.85647621     0.14200
C957        C  0.26517691  0.38962677  0.05808615    -0.05800
C958        C  0.26958636  0.40441715  0.09939357    -0.05700
C959        C  0.25790871  0.38047388  0.13375143    -0.23900
C960        C  0.24091577  0.34122893  0.12733016     0.18300
C961        C  0.23412865  0.32596276  0.08575904     0.15600
C962        C  0.24678964  0.35024420  0.05151557    -0.18900
C963        C  0.21593304  0.28669976  0.07916823    -0.20700
C964        C  0.20587229  0.26282366  0.11332517    -0.13300
C965        C  0.21458796  0.27775248  0.15463119     0.03400
C966        C  0.23169138  0.31705243  0.16154062    -0.25400
H967        H  0.28398970  0.43463819  0.10519420     0.08500
H968        H  0.26303733  0.39272081  0.16535276     0.12100
H969        H  0.24323106  0.33859382  0.01971816     0.12000
H970        H  0.21022093  0.27448389  0.04753180     0.11800
H971        H  0.19300299  0.23272202  0.10736916     0.12300
H972        H  0.23839606  0.32874953  0.19340898     0.14200
C973        C  0.21890795  0.37380102  0.87232933    -0.05800
C974        C  0.19513370  0.34182855  0.89558037    -0.05700
C975        C  0.16022398  0.31469098  0.87954437    -0.23900
C976        C  0.14864110  0.31911983  0.84003174     0.18300
C977        C  0.17261120  0.35096384  0.81624251     0.15600
C978        C  0.20757326  0.37806812  0.83252430    -0.18900
C979        C  0.16112104  0.35536451  0.77668090    -0.20700
C980        C  0.12595121  0.32863798  0.76098771    -0.13300
C981        C  0.10179888  0.29706539  0.78461130     0.03400
C982        C  0.11340194  0.29234311  0.82403926    -0.25400
H983        H  0.20333489  0.33794593  0.92643514     0.08500
H984        H  0.14223620  0.29042950  0.89812367     0.12100
H985        H  0.22583442  0.40249707  0.81427543     0.12000
H986        H  0.17921407  0.37951195  0.75799978     0.11800
H987        H  0.11771946  0.33272319  0.73024648     0.12300
H988        H  0.09501781  0.26802381  0.84236908     0.14200
C989        C  0.47256052  0.73867215  0.91834253    -0.05800
C990        C  0.46067201  0.72026349  0.87860634    -0.05700
C991        C  0.43981225  0.68086108  0.87468207    -0.23900
C992        C  0.43078918  0.65875550  0.91035657     0.18300
C993        C  0.44406995  0.67679662  0.95024852     0.15600
C994        C  0.46444975  0.71654891  0.95409749    -0.18900
C995        C  0.43602683  0.65474396  0.98578278    -0.20700
C996        C  0.41414616  0.61543747  0.98215737    -0.13300
C997        C  0.39919066  0.59702731  0.94301354     0.03400
C998        C  0.40811638  0.61905197  0.90698230    -0.25400
H999        H  0.46623856  0.73641816  0.85046385     0.08500
H1000       H  0.43021076  0.66771322  0.84376158     0.12100
H1001       H  0.47349805  0.73021439  0.98489296     0.12000
H1002       H  0.44616212  0.66792249  0.01659182     0.11800
H1003       H  0.40783205  0.59946807  0.01054774     0.12300
H1004       H  0.39705385  0.60542879  0.87655153     0.14200
C1005       C  0.24627638  0.52215687  0.95573256    -0.05800
C1006       C  0.23913885  0.53302303  0.99548356    -0.05700
C1007       C  0.22015208  0.55305437  0.99909991    -0.23900
C1008       C  0.20858305  0.56335293  0.96298305     0.18300
C1009       C  0.21509601  0.55212489  0.92291210     0.15600
C1010       C  0.23323452  0.53108515  0.91957987    -0.18900
C1011       C  0.20470429  0.56341358  0.88672301    -0.20700
C1012       C  0.18900643  0.58648394  0.89006650    -0.13300
C1013       C  0.18254640  0.59810051  0.92965180     0.03400
C1014       C  0.19182786  0.58576128  0.96613018    -0.25400
H1015       H  0.24891200  0.52665666  0.02383484     0.08500
H1016       H  0.21551007  0.56145034  0.03011563     0.12100
H1017       H  0.23894113  0.52341045  0.88868307     0.12000
H1018       H  0.20959340  0.55518185  0.85573530     0.11800
H1019       H  0.18214717  0.59552016  0.86154759     0.12300
H1020       H  0.18748722  0.59488619  0.99689722     0.14200
C1021       C  0.71048536  0.81887947  0.81525567    -0.05800
C1022       C  0.71911167  0.83596357  0.85569689    -0.05700
C1023       C  0.69742146  0.84952362  0.87370716    -0.23900
C1024       C  0.66687363  0.84624430  0.85148636     0.18300
C1025       C  0.65786706  0.82896465  0.81083963     0.15600
C1026       C  0.67970540  0.81530554  0.79299428    -0.18900
C1027       C  0.62720740  0.82568681  0.78874805    -0.20700
C1028       C  0.60535404  0.83903498  0.80706516    -0.13300
C1029       C  0.61405422  0.85598075  0.84758733     0.03400
C1030       C  0.64504716  0.85975769  0.86947302    -0.25400
H1031       H  0.74281469  0.83909394  0.87339254     0.08500
H1032       H  0.70459990  0.86266017  0.90490804     0.12100
H1033       H  0.67302363  0.80238613  0.76165382     0.12000
H1034       H  0.61997550  0.81256778  0.75754537     0.11800
H1035       H  0.58145792  0.83576647  0.78966454     0.12300
H1036       H  0.65185781  0.87260334  0.90084938     0.14200
C1037       C  0.80030431  0.70925570  0.67464420    -0.05800
C1038       C  0.77449303  0.67121190  0.68204753    -0.05700
C1039       C  0.78506136  0.64422441  0.67771131    -0.23900
C1040       C  0.82178414  0.65502852  0.66647594     0.18300
C1041       C  0.84751347  0.69297447  0.65679482     0.15600
C1042       C  0.83643012  0.71992025  0.66051040    -0.18900
C1043       C  0.88408497  0.70334544  0.64479528    -0.20700
C1044       C  0.89490238  0.67627742  0.64235085    -0.13300
C1045       C  0.86959097  0.63883511  0.65295342     0.03400
C1046       C  0.83315598  0.62842428  0.66505360    -0.25400
H1047       H  0.74649613  0.66262058  0.69292827     0.08500
H1048       H  0.76492113  0.61516590  0.68460006     0.12100
H1049       H  0.85651311  0.74936610  0.65522279     0.12000
H1050       H  0.90411349  0.73218359  0.63698178     0.11800
H1051       H  0.92285645  0.68440761  0.63174736     0.12300
H1052       H  0.81317311  0.59922589  0.67170777     0.14200
C1053       C  0.92332970  0.07471214  0.71396831    -0.05800
C1054       C  0.91002092  0.05587953  0.67461931    -0.05700
C1055       C  0.88833106  0.01652908  0.67138462    -0.23900
C1056       C  0.87898272  0.99494825  0.70747547     0.18300
C1057       C  0.89084026  0.01354027  0.74734426     0.15600
C1058       C  0.91318542  0.05317736  0.75035400    -0.18900
C1059       C  0.88075322  0.99209933  0.78354080    -0.20700
C1060       C  0.86016645  0.95275849  0.78031430    -0.13300
C1061       C  0.84962248  0.93371000  0.74079569     0.03400
C1062       C  0.85877970  0.95515884  0.70435280    -0.25400
H1063       H  0.91737086  0.07153845  0.64591708     0.08500
H1064       H  0.87937004  0.00296995  0.64054519     0.12100
H1065       H  0.92305252  0.06715142  0.78088538     0.12000
H1066       H  0.88932842  0.00572799  0.81439552     0.11800
H1067       H  0.85382669  0.93716144  0.80899456     0.12300
H1068       H  0.85081870  0.94098227  0.67371042     0.14200
C1069       C  0.92377596  0.85422329  0.74584684    -0.05800
C1070       C  0.94122351  0.86019735  0.78538746    -0.05700
C1071       C  0.98007288  0.87639773  0.78878689    -0.23900
C1072       C  0.00243820  0.88775066  0.75275172     0.18300
C1073       C  0.98523474  0.88123090  0.71271927     0.15600
C1074       C  0.94598014  0.86397224  0.70945227    -0.18900
C1075       C  0.00773495  0.89358877  0.67681331    -0.20700
C1076       C  0.04684505  0.91379237  0.68067451    -0.13300
C1077       C  0.06431253  0.92143347  0.72042958     0.03400
C1078       C  0.04176471  0.90714365  0.75628109    -0.25400
H1079       H  0.92480257  0.85282816  0.81388882     0.08500
H1080       H  0.99272542  0.88115207  0.81973800     0.12100
H1081       H  0.93295663  0.85988100  0.67880663     0.12000
H1082       H  0.99511028  0.88883451  0.64584811     0.11800
H1083       H  0.06346972  0.92435080  0.65254060     0.12300
H1084       H  0.05474570  0.91307093  0.78718696     0.14200
C1085       C  0.76702465  0.62806070  0.12875947    -0.05800
C1086       C  0.78977199  0.65995663  0.10483752    -0.05700
C1087       C  0.82557852  0.68687863  0.11886258    -0.23900
C1088       C  0.83911366  0.68240295  0.15708758     0.18300
C1089       C  0.81663168  0.65010525  0.18095321     0.15600
C1090       C  0.78083144  0.62310441  0.16657738    -0.18900
C1091       C  0.83009295  0.64554226  0.21913934    -0.20700
C1092       C  0.86524821  0.67310268  0.23403008    -0.13300
C1093       C  0.88756140  0.70566195  0.21091499     0.03400
C1094       C  0.87450342  0.70994072  0.17215498    -0.25400
H1095       H  0.77988206  0.66420657  0.07523292     0.08500
H1096       H  0.84248261  0.71132643  0.10006327     0.12100
H1097       H  0.76360112  0.59853497  0.18510922     0.12000
H1098       H  0.81328182  0.62091323  0.23772230     0.11800
H1099       H  0.87474793  0.66904374  0.26400239     0.12300
H1100       H  0.89158612  0.73481059  0.15399996     0.14200
C1101       C  0.71969242  0.61479868  0.95024299    -0.05800
C1102       C  0.71811438  0.60078953  0.90906108    -0.05700
C1103       C  0.73246894  0.62539347  0.87544522    -0.23900
C1104       C  0.74937692  0.66452200  0.88257246     0.18300
C1105       C  0.75329046  0.67906337  0.92424818     0.15600
C1106       C  0.73790932  0.65409059  0.95771605    -0.18900
C1107       C  0.77127555  0.71827019  0.93149063    -0.20700
C1108       C  0.78353500  0.74271152  0.89767149    -0.13300
C1109       C  0.77746771  0.72834599  0.85610064     0.03400
C1110       C  0.76101260  0.68923345  0.84873147    -0.25400
H1111       H  0.70403140  0.57066780  0.90261543     0.08500
H1112       H  0.72950922  0.61375218  0.84375618     0.12100
H1113       H  0.73938815  0.66511933  0.98948200     0.12000
H1114       H  0.77480600  0.72995949  0.96323141     0.11800
H1115       H  0.79566140  0.77269451  0.90389359     0.12300
H1116       H  0.75608507  0.67802012  0.81663624     0.14200
C1117       C  0.55891303  0.51959473  0.00740734    -0.05800
C1118       C  0.54495389  0.49993326  0.96885462    -0.05700
C1119       C  0.50715510  0.48382916  0.95876619    -0.23900
C1120       C  0.48297018  0.48723577  0.98713866     0.18300
C1121       C  0.49670826  0.50658731  0.02622217     0.15600
C1122       C  0.53457895  0.52260271  0.03610996    -0.18900
C1123       C  0.47246134  0.51006224  0.05449472    -0.20700
C1124       C  0.43508810  0.49575146  0.04331484    -0.13300
C1125       C  0.42160001  0.47747799  0.00397984     0.03400
C1126       C  0.44546028  0.47244768  0.97652083    -0.25400
H1127       H  0.56320228  0.49686712  0.94657078     0.08500
H1128       H  0.49690188  0.46896182  0.92873564     0.12100
H1129       H  0.54499559  0.53723250  0.06625545     0.12000
H1130       H  0.48259866  0.52462516  0.08469456     0.11800
H1131       H  0.41702441  0.49977478  0.06497170     0.12300
H1132       H  0.43530717  0.45836840  0.94606370     0.14200
C1133       C  0.79774161  0.40076247  0.06979755    -0.05800
C1134       C  0.79250924  0.41216760  0.11020532    -0.05700
C1135       C  0.77710194  0.43548127  0.11537762    -0.23900
C1136       C  0.76593726  0.44739351  0.08025438     0.18300
C1137       C  0.77126597  0.43633635  0.03950875     0.15600
C1138       C  0.78747674  0.41356298  0.03453455    -0.18900
C1139       C  0.75931406  0.44734869  0.00436854    -0.20700
C1140       C  0.74125358  0.46810578  0.00946007    -0.13300
C1141       C  0.73514349  0.47887221  0.04976940     0.03400
C1142       C  0.74839500  0.46902760  0.08514028    -0.25400
H1143       H  0.80014921  0.40284302  0.13793091     0.08500
H1144       H  0.77321446  0.44354947  0.14690530     0.12100
H1145       H  0.79090565  0.40475231  0.00317691     0.12000
H1146       H  0.76308855  0.43908971  0.97288595     0.11800
H1147       H  0.73133932  0.47511114  0.98168568     0.12300
H1148       H  0.74349925  0.47661443  0.11647754     0.14200
C1149       C  0.58253346  0.40672099  0.06282998    -0.05800
C1150       C  0.56741127  0.38894612  0.02344384    -0.05700
C1151       C  0.54548699  0.34972925  0.01906333    -0.23900
C1152       C  0.53758180  0.32714299  0.05405644     0.18300
C1153       C  0.55074159  0.34456270  0.09425802     0.15600
C1154       C  0.57343921  0.38419570  0.09840434    -0.18900
C1155       C  0.54174080  0.32190372  0.12942090    -0.20700
C1156       C  0.52122679  0.28257089  0.12463247    -0.13300
C1157       C  0.50973181  0.26483497  0.08451949     0.03400
C1158       C  0.51760446  0.28746908  0.04932269    -0.25400
H1159       H  0.57373059  0.40531835  0.99537267     0.08500
H1160       H  0.53535445  0.33703791  0.98806282     0.12100
H1161       H  0.58456685  0.39734237  0.12900631     0.12000
H1162       H  0.55119269  0.33455801  0.16056768     0.11800
H1163       H  0.51574319  0.26594436  0.15236829     0.12300
H1164       H  0.50875537  0.27426609  0.01829141     0.14200
C1165       C  0.54631766  0.60565072  0.28770733    -0.05800
C1166       C  0.53181740  0.60403632  0.24741338    -0.05700
C1167       C  0.54333694  0.59093394  0.21239143    -0.23900
C1168       C  0.56906459  0.57851489  0.21710006     0.18300
C1169       C  0.58170284  0.57745373  0.25790191     0.15600
C1170       C  0.57060074  0.59136569  0.29276340    -0.18900
C1171       C  0.60638871  0.56384055  0.26292410    -0.20700
C1172       C  0.61978726  0.55300837  0.22778857    -0.13300
C1173       C  0.60932328  0.55614883  0.18691536     0.03400
C1174       C  0.58343363  0.56843683  0.18178178    -0.25400
H1175       H  0.51319106  0.61486568  0.24264479     0.08500
H1176       H  0.53292082  0.59151141  0.18144316     0.12100
H1177       H  0.58170923  0.59209175  0.32376493     0.12000
H1178       H  0.61613520  0.56251231  0.29399123     0.11800
H1179       H  0.63989489  0.54398555  0.23243199     0.12300
H1180       H  0.57522640  0.57097937  0.15031512     0.14200
C1181       C  0.59847147  0.71593819  0.52829813    -0.05800
C1182       C  0.58536199  0.71338760  0.56961279    -0.05700
C1183       C  0.61065728  0.72895580  0.60363323    -0.23900
C1184       C  0.64957408  0.74811964  0.59686365     0.18300
C1185       C  0.66303341  0.75296768  0.55521510     0.15600
C1186       C  0.63744103  0.73637409  0.52129857    -0.18900
C1187       C  0.70190905  0.77320877  0.54835233    -0.20700
C1188       C  0.72725122  0.78700787  0.58238553    -0.13300
C1189       C  0.71428142  0.78026181  0.62393325     0.03400
C1190       C  0.67525107  0.76128688  0.63091969    -0.25400
H1191       H  0.55555797  0.69765380  0.57574962     0.08500
H1192       H  0.59977577  0.72523759  0.63531449     0.12100
H1193       H  0.64780849  0.73865218  0.48946616     0.12000
H1194       H  0.71275015  0.77746138  0.51662669     0.11800
H1195       H  0.75703008  0.80098791  0.57619939     0.12300
H1196       H  0.66491554  0.75578987  0.66287455     0.14200
C1197       C  0.61805698  0.76524630  0.35569557    -0.05800
C1198       C  0.65346114  0.78073897  0.37524296    -0.05700
C1199       C  0.68076208  0.81827161  0.37021450    -0.23900
C1200       C  0.67328391  0.84116980  0.34552221     0.18300
C1201       C  0.63796216  0.82594500  0.32526280     0.15600
C1202       C  0.61051549  0.78794343  0.33034772    -0.18900
C1203       C  0.63079376  0.84906333  0.30035963    -0.20700
C1204       C  0.65866703  0.88649158  0.29471157    -0.13300
C1205       C  0.69403853  0.90156029  0.31425574     0.03400
C1206       C  0.70088574  0.87889746  0.34027301    -0.25400
H1207       H  0.66002483  0.76386456  0.39502864     0.08500
H1208       H  0.70767701  0.82940839  0.38581174     0.12100
H1209       H  0.58319102  0.77639164  0.31558893     0.12000
H1210       H  0.60392638  0.83806840  0.28471392     0.11800
H1211       H  0.65271918  0.90351300  0.27442457     0.12300
H1212       H  0.72815687  0.89015109  0.35509127     0.14200
C1213       C  0.51332840  0.55609237  0.46638084    -0.05800
C1214       C  0.53237223  0.53944519  0.44728532    -0.05700
C1215       C  0.52479286  0.50394513  0.45865811    -0.23900
C1216       C  0.49777336  0.48428417  0.48903393     0.18300
C1217       C  0.47807820  0.50049192  0.50818132     0.15600
C1218       C  0.48621088  0.53651031  0.49697698    -0.18900
C1219       C  0.45060184  0.48032627  0.53812261    -0.20700
C1220       C  0.44307100  0.44464215  0.54927867    -0.13300
C1221       C  0.46319461  0.42886482  0.53097085     0.03400
C1222       C  0.49038508  0.44875754  0.50073689    -0.25400
H1223       H  0.55338840  0.55397017  0.42354177     0.08500
H1224       H  0.54002702  0.49185879  0.44364059     0.12100
H1225       H  0.47113537  0.54898316  0.51152836     0.12000
H1226       H  0.43519338  0.49223036  0.55309915     0.11800
H1227       H  0.42229162  0.42985448  0.57316478     0.12300
H1228       H  0.50596238  0.43668106  0.48652308     0.14200
C1229       C  0.40807566  0.81201576  0.38972346    -0.05800
C1230       C  0.42264888  0.80774917  0.35129075    -0.05700
C1231       C  0.44340862  0.78941859  0.34936069    -0.23900
C1232       C  0.44977404  0.77485215  0.38579964     0.18300
C1233       C  0.43655037  0.78034455  0.42483053     0.15600
C1234       C  0.41626479  0.79919211  0.42659102    -0.18900
C1235       C  0.44236911  0.76544169  0.46123140    -0.20700
C1236       C  0.45957419  0.74372242  0.45874173    -0.13300
C1237       C  0.47191180  0.73701082  0.41994346     0.03400
C1238       C  0.46777628  0.75363225  0.38368011    -0.25400
H1239       H  0.41678023  0.81726218  0.32249424     0.08500
H1240       H  0.45343627  0.78555388  0.31913553     0.12100
H1241       H  0.40549604  0.80246535  0.45660940     0.12000
H1242       H  0.43251111  0.76955141  0.49146019     0.11800
H1243       H  0.46254324  0.73151617  0.48710724     0.12300
H1244       H  0.47697073  0.74862579  0.35343889     0.14200
C1245       C  0.39266938  0.58237110  0.39961716    -0.05800
C1246       C  0.37514322  0.56175142  0.43584975    -0.05700
C1247       C  0.33614207  0.54183342  0.43981027    -0.23900
C1248       C  0.31324190  0.54135967  0.40740725     0.18300
C1249       C  0.33000735  0.56002148  0.36976340     0.15600
C1250       C  0.36959824  0.58069221  0.36616572    -0.18900
C1251       C  0.30678419  0.55830397  0.33681798    -0.20700
C1252       C  0.26771888  0.53914567  0.34147290    -0.13300
C1253       C  0.25087787  0.52198583  0.37947168     0.03400
C1254       C  0.27394759  0.52308706  0.41235351    -0.25400
H1255       H  0.39168843  0.56206662  0.46222723     0.08500
H1256       H  0.32392199  0.52733402  0.46868407     0.12100
H1257       H  0.38232542  0.59617977  0.33796281     0.12000
H1258       H  0.31883388  0.57212698  0.30757382     0.11800
H1259       H  0.25062200  0.53891035  0.31572461     0.12300
H1260       H  0.26134015  0.50979517  0.44169223     0.14200
loop_ 
_geom_bond_atom_site_label_1 
_geom_bond_atom_site_label_2 
_geom_bond_distance 
_geom_bond_site_symmetry_2 
_ccdc_geom_bond_type 
O1          Cr19   1.933       .  S
O1            C9   1.257       .  A
O2          Cr19   2.001       .  S
O2            C3   1.259       .  A
C3            O4   1.261       .  A
C3         C1181   1.487       .  S
O4          Cr20   2.004       .  S
O5          Cr20   2.014       .  S
O5            C6   1.269       .  A
C6            O7   1.258       .  A
C6         C1237   1.488       .  S
O7          Cr21   1.972       .  S
O8          Cr21   2.038       .  S
O8            C9   1.278       .  A
C9         C1197   1.473       .  S
O10         Cr19   1.995       .  S
O10          C18   1.258       .  A
O11         Cr19   1.942       .  S
O11          C12   1.259       .  A
C12          O13   1.274       .  A
C12        C1213   1.470       .  S
O13         Cr20   2.024       .  S
O14         Cr20   1.970       .  S
O14          C15   1.260       .  A
C15          O16   1.273       .  A
C15        C1245   1.502       .  S
O16         Cr21   2.041       .  S
O17         Cr21   2.011       .  S
O17          C18   1.263       .  A
C18        C1165   1.492       .  S
Cr19         O22   1.776       .  S
Cr20         O22   1.776       .  S
Cr21         O22   1.783       .  S
O23         Cr41   1.942       .  S
O23          C31   1.260       .  A
O24         Cr41   2.003       .  S
O24          C25   1.260   1_554  A
C25          O26   1.260       .  A
C25        C1101   1.483       .  S
O26         Cr42   1.996   1_556  S
O27         Cr42   2.000       .  S
O27          C28   1.265       .  A
C28          O29   1.262       .  A
C28        C1141   1.492       .  S
O29         Cr43   1.989       .  S
O30         Cr43   2.023       .  S
O30          C31   1.277       .  A
C31        C1085   1.469       .  S
O32         Cr41   2.001       .  S
O32          C40   1.258       .  A
O33         Cr41   1.947       .  S
O33          C34   1.260       .  A
C34          O35   1.269   1_554  A
C34        C1117   1.462       .  S
O35         Cr42   2.005   1_556  S
O36         Cr42   1.968       .  S
O36          C37   1.260       .  A
C37          O38   1.271       .  A
C37        C1149   1.492       .  S
O38         Cr43   2.024       .  S
O39         Cr43   2.007       .  S
O39          C40   1.260       .  A
C40        C1173   1.488       .  S
Cr41         O44   1.780       .  S
Cr42         O44   1.776       .  S
Cr43         O44   1.780       .  S
O45         Cr63   1.961       .  S
O45          C53   1.261       .  A
O46         Cr63   1.987       .  S
O46          C47   1.255       .  A
C47          O48   1.263       .  A
C47        C1189   1.489       .  S
O48         Cr64   2.012       .  S
O49         Cr64   2.024       .  S
O49          C50   1.271       .  A
C50          O51   1.261       .  A
C50        C1061   1.490       .  S
O51         Cr65   1.970       .  S
O52         Cr65   1.996       .  S
O52          C53   1.266       .  A
C53        C1021   1.464       .  S
O54         Cr63   2.000       .  S
O54          C62   1.259       .  A
O55         Cr63   1.943       .  S
O55          C56   1.261       .  A
C56          O57   1.274       .  A
C56        C1037   1.463       .  S
O57         Cr64   2.020       .  S
O58         Cr64   1.989       .  S
O58          C59   1.260       .  A
C59          O60   1.261       .  A
C59        C1069   1.485       .  S
O60         Cr65   1.988       .  S
O61         Cr65   1.994       .  S
O61          C62   1.259       .  A
C62        C1109   1.478       .  S
Cr63         O66   1.781       .  S
Cr64         O66   1.787       .  S
Cr65         O66   1.782       .  S
O67         Cr85   2.017       .  S
O67          C75   1.274       .  A
O68         Cr85   1.986       .  S
O68          C69   1.262       .  A
C69          O70   1.265       .  A
C69        C1005   1.490       .  S
O70         Cr86   2.003       .  S
O71         Cr86   1.998   1_554  S
O71          C72   1.261       .  A
C72          O73   1.260   1_554  A
C72         C957   1.485       .  S
O73         Cr87   2.002       .  S
O74         Cr87   1.944       .  S
O74          C75   1.258       .  A
C75         C973   1.466       .  S
O76         Cr85   2.008       .  S
O76          C84   1.263       .  A
O77         Cr85   2.023       .  S
O77          C78   1.270       .  A
C78          O79   1.261       .  A
C78         C997   1.494       .  S
O79         Cr86   1.975       .  S
O80         Cr86   2.006   1_554  S
O80          C81   1.268   1_554  A
C81          O82   1.259       .  A
C81        C1125   1.462   1_556  S
O82         Cr87   1.944       .  S
O83         Cr87   2.008       .  S
O83          C84   1.261       .  A
C84         C949   1.494       .  S
Cr85         O88   1.783       .  S
Cr86         O88   1.782       .  S
Cr87         O88   1.778       .  S
O89        Cr107   1.968       .  S
O89          C97   1.259       .  A
O90        Cr107   2.014       .  S
O90          C91   1.270       .  A
C91          O92   1.269       .  A
C91         C925   1.494       .  S
O92        Cr108   2.000       .  S
O93        Cr108   2.025       .  S
O93          C94   1.265       .  A
C94          O95   1.257       .  A
C94         C893   1.499       .  S
O95        Cr109   1.986       .  S
O96        Cr109   1.982       .  S
O96          C97   1.261       .  A
C97         C877   1.455       .  S
O98        Cr107   2.031       .  S
O98         C106   1.270       .  A
O99        Cr107   2.016       .  S
O99         C100   1.271       .  A
C100        O101   1.267       .  A
C100        C917   1.500       .  S
O101       Cr108   2.001       .  S
O102       Cr108   1.969       .  S
O102        C103   1.263       .  A
C103        O104   1.264       .  A
C103       C1221   1.466       .  S
O104       Cr109   1.990       .  S
O105       Cr109   1.985       .  S
O105        C106   1.258       .  A
C106        C941   1.504       .  S
Cr107       O110   1.781       .  S
Cr108       O110   1.776       .  S
Cr109       O110   1.784       .  S
O111       Cr129   2.020       .  S
O111        C119   1.276       .  A
O112       Cr129   1.965       .  S
O112        C113   1.257       .  A
C113        O114   1.268       .  A
C113        C845   1.484       .  S
O114       Cr130   2.007       .  S
O115       Cr130   2.021       .  S
O115        C116   1.262       .  A
C116        O117   1.255       .  A
C116        C901   1.489       .  S
O117       Cr131   1.989       .  S
O118       Cr131   1.947       .  S
O118        C119   1.262       .  A
C119        C813   1.465       .  S
O120       Cr129   1.995       .  S
O120        C128   1.257       .  A
O121       Cr129   2.012       .  S
O121        C122   1.269       .  A
C122        O123   1.263       .  A
C122        C869   1.497       .  S
O123       Cr130   1.989       .  S
O124       Cr130   2.019       .  S
O124        C125   1.275       .  A
C125        O126   1.259       .  A
C125        C837   1.462       .  S
O126       Cr131   1.926       .  S
O127       Cr131   1.999       .  S
O127        C128   1.256       .  A
C128        C965   1.481       .  S
Cr129       O132   1.773       .  S
Cr130       O132   1.784       .  S
Cr131       O132   1.779       .  S
O133       Cr151   1.947       .  S
O133        C141   1.260       .  A
O134       Cr151   2.004       .  S
O134        C135   1.259       .  A
C135        O136   1.257       .  A
C135        C789   1.489       .  S
O136       Cr152   1.996       .  S
O137       Cr152   2.012       .  S
O137        C138   1.269       .  A
C138        O139   1.260       .  A
C138        C805   1.491       .  S
O139       Cr153   1.977       .  S
O140       Cr153   2.021       .  S
O140        C141   1.273       .  A
C141        C749   1.469       .  S
O142       Cr151   2.005       .  S
O142        C150   1.260   1_554  A
O143       Cr151   1.944       .  S
O143        C144   1.261       .  A
C144        O145   1.275       .  A
C144        C821   1.465       .  S
O145       Cr152   2.021       .  S
O146       Cr152   1.969       .  S
O146        C147   1.258       .  A
C147        O148   1.269       .  A
C147       C1157   1.490       .  S
O148       Cr153   2.023       .  S
O149       Cr153   2.004       .  S
O149        C150   1.262   1_554  A
C150        C773   1.487       .  S
Cr151       O154   1.780       .  S
Cr152       O154   1.780       .  S
Cr153       O154   1.783       .  S
O155       Cr173   1.946       .  S
O155        C163   1.260       .  A
O156       Cr173   1.999       .  S
O156        C157   1.258       .  A
C157        O158   1.262       .  A
C157        C765   1.492       .  S
O158       Cr174   2.009   1_545  S
O159       Cr174   2.018   1_545  S
O159        C160   1.269       .  A
C160        O161   1.260       .  A
C160        C733   1.492       .  S
O161       Cr175   1.975       .  S
O162       Cr175   2.014       .  S
O162        C163   1.271       .  A
C163        C885   1.469       .  S
O164       Cr173   1.997   1_565  S
O164        C172   1.259       .  A
O165       Cr173   1.958   1_565  S
O165        C166   1.262       .  A
C166        O167   1.276       .  A
C166        C717   1.478       .  S
O167       Cr174   2.025       .  S
O168       Cr174   1.986       .  S
O168        C169   1.263       .  A
C169        O170   1.265       .  A
C169       C1077   1.487       .  S
O170       Cr175   1.999   1_565  S
O171       Cr175   1.998   1_565  S
O171        C172   1.259       .  A
C172        C701   1.486       .  S
Cr173       O176   1.778       .  S
Cr174       O176   1.780   1_565  S
Cr175       O176   1.784       .  S
O177       Cr195   1.988       .  S
O177        C185   1.265       .  A
O178       Cr195   1.990       .  S
O178        C179   1.259       .  A
C179        O180   1.265       .  A
C179        C781   1.493       .  S
O180       Cr196   2.010       .  S
O181       Cr196   2.004       .  S
O181        C182   1.267       .  A
C182        O183   1.263       .  A
C182       C1229   1.489       .  S
O183       Cr197   1.996       .  S
O184       Cr197   1.956       .  S
O184        C185   1.261       .  A
C185        C669   1.456       .  S
O186       Cr195   1.995       .  S
O186        C194   1.258       .  A
O187       Cr195   1.988       .  S
O187        C188   1.263       .  A
C188        O189   1.260       .  A
C188        C661   1.461       .  S
O189       Cr196   1.965       .  S
O190       Cr196   2.000       .  S
O190        C191   1.268       .  A
C191        O192   1.265       .  A
C191        C685   1.475       .  S
O192       Cr197   1.984       .  S
O193       Cr197   2.000       .  S
O193        C194   1.261       .  A
C194        C709   1.491       .  S
Cr195       O198   1.780       .  S
Cr196       O198   1.774       .  S
Cr197       O198   1.774       .  S
O199       Cr217   2.019       .  S
O199        C207   1.274       .  A
O200       Cr217   1.992       .  S
O200        C201   1.262       .  A
C201        O202   1.262       .  A
C201        C645   1.489       .  S
O202       Cr218   1.990       .  S
O203       Cr218   1.996       .  S
O203        C204   1.259       .  A
C204        O205   1.259       .  A
C204        C629   1.481       .  S
O205       Cr219   1.999       .  S
O206       Cr219   1.947       .  S
O206        C207   1.260       .  A
C207        C757   1.468       .  S
O208       Cr217   2.009       .  S
O208        C216   1.262   1_556  A
O209       Cr217   2.022       .  S
O209        C210   1.271       .  A
C210        O211   1.262       .  A
C210        C989   1.492       .  S
O211       Cr218   1.976       .  S
O212       Cr218   2.002       .  S
O212        C213   1.268       .  A
C213        O214   1.263       .  A
C213       C1029   1.465       .  S
O214       Cr219   1.956       .  S
O215       Cr219   1.997       .  S
O215        C216   1.258   1_556  A
C216        C613   1.491       .  S
Cr217       O220   1.784       .  S
Cr218       O220   1.779       .  S
Cr219       O220   1.780       .  S
O221       Cr239   2.032       .  S
O221        C229   1.278       .  A
O222       Cr239   1.991       .  S
O222        C223   1.262       .  A
C223        O224   1.269       .  A
C223        C589   1.499       .  S
O224       Cr240   2.017   1_565  S
O225       Cr240   2.003   1_565  S
O225        C226   1.260       .  A
C226        O227   1.260       .  A
C226        C605   1.487       .  S
O227       Cr241   2.006   1_565  S
O228       Cr241   1.938   1_565  S
O228        C229   1.258       .  A
C229       C1205   1.472       .  S
O230       Cr239   2.006   1_545  S
O230        C238   1.260       .  A
O231       Cr239   2.021   1_545  S
O231        C232   1.271       .  A
C232        O233   1.262       .  A
C232        C861   1.493       .  S
O233       Cr240   1.978       .  S
O234       Cr240   2.029       .  S
O234        C235   1.275       .  A
C235        O236   1.258       .  A
C235        C557   1.474       .  S
O236       Cr241   1.948       .  S
O237       Cr241   1.997       .  S
O237        C238   1.257       .  A
C238        C581   1.491       .  S
Cr239       O242   1.783   1_565  S
Cr240       O242   1.781       .  S
Cr241       O242   1.784       .  S
O243       Cr261   2.008       .  S
O243        C251   1.271       .  A
O244       Cr261   1.991       .  S
O244        C245   1.263       .  A
C245        O246   1.268       .  A
C245        C933   1.494       .  S
O246       Cr262   2.007       .  S
O247       Cr262   1.995       .  S
O247        C248   1.260       .  A
C248        O249   1.260       .  A
C248        C621   1.479       .  S
O249       Cr263   2.001       .  S
O250       Cr263   1.938       .  S
O250        C251   1.257       .  A
C251        C677   1.457       .  S
O252       Cr261   2.004       .  S
O252        C260   1.262       .  A
O253       Cr261   2.004       .  S
O253        C254   1.267       .  A
C254        O255   1.260       .  A
C254        C549   1.483       .  S
O255       Cr262   1.977       .  S
O256       Cr262   2.013       .  S
O256        C257   1.270       .  A
C257        O258   1.255       .  A
C257        C533   1.463       .  S
O258       Cr263   1.934       .  S
O259       Cr263   2.000       .  S
O259        C260   1.260       .  A
C260        C573   1.486       .  S
Cr261       O264   1.778       .  S
Cr262       O264   1.779       .  S
Cr263       O264   1.778       .  S
O265       Cr283   1.928       .  S
O265        C273   1.257       .  A
O266       Cr283   2.001       .  S
O266        C267   1.261       .  A
C267        O268   1.260       .  A
C267        C501   1.476       .  S
O268       Cr284   1.993       .  S
O269       Cr284   2.020       .  S
O269        C270   1.267       .  A
C270        O271   1.259       .  A
C270       C1253   1.491       .  S
O271       Cr285   1.980       .  S
O272       Cr285   2.016       .  S
O272        C273   1.273       .  A
C273        C829   1.462       .  S
O274       Cr283   2.001       .  S
O274        C282   1.258       .  A
O275       Cr283   1.950       .  S
O275        C276   1.260       .  A
C276        O277   1.273       .  A
C276        C477   1.470       .  S
O277       Cr284   2.020       .  S
O278       Cr284   1.967       .  S
O278        C279   1.260       .  A
C279        O280   1.269       .  A
C279        C693   1.479       .  S
O280       Cr285   2.005       .  S
O281       Cr285   1.993       .  S
O281        C282   1.258       .  A
C282        C509   1.488       .  S
Cr283       O286   1.778       .  S
Cr284       O286   1.780       .  S
Cr285       O286   1.780       .  S
O287       Cr305   1.954       .  S
O287        C295   1.263       .  A
O288       Cr305   2.002       .  S
O288        C289   1.257       .  A
C289        O290   1.256       .  A
C289        C517   1.480       .  S
O290       Cr306   1.993       .  S
O291       Cr306   2.002       .  S
O291        C292   1.265       .  A
C292        O293   1.262       .  A
C292       C1133   1.493       .  S
O293       Cr307   1.990       .  S
O294       Cr307   2.020   1_556  S
O294        C295   1.274   1_556  A
C295        C469   1.474   1_554  S
O296       Cr305   1.997   1_556  S
O296        C304   1.257       .  A
O297       Cr305   1.962       .  S
O297        C298   1.264       .  A
C298        O299   1.274       .  A
C298        C565   1.474       .  S
O299       Cr306   2.015       .  S
O300       Cr306   1.972       .  S
O300        C301   1.260       .  A
C301        O302   1.269       .  A
C301        C797   1.487       .  S
O302       Cr307   2.013       .  S
O303       Cr307   2.014   1_556  S
O303        C304   1.262       .  A
C304        C453   1.493       .  S
Cr305       O308   1.782       .  S
Cr306       O308   1.784       .  S
Cr307       O308   1.787       .  S
O309       Cr327   1.937       .  S
O309        C317   1.258       .  A
O310       Cr327   1.996       .  S
O310        C311   1.257       .  A
C311        O312   1.257       .  A
C311        C493   1.478       .  S
O312       Cr328   1.995   1_455  S
O313       Cr328   2.011   1_455  S
O313        C314   1.268       .  A
C314        O315   1.261       .  A
C314        C741   1.491       .  S
O315       Cr329   1.981       .  S
O316       Cr329   2.021       .  S
O316        C317   1.276       .  A
C317        C981   1.466       .  S
O318       Cr327   2.008   1_655  S
O318        C326   1.260       .  A
O319       Cr327   1.926   1_655  S
O319        C320   1.258       .  A
C320        O321   1.273       .  A
C320        C525   1.464       .  S
O321       Cr328   2.021       .  S
O322       Cr328   1.967       .  S
O322        C323   1.258       .  A
C323        O324   1.269       .  A
C323       C1053   1.491       .  S
O324       Cr329   2.019   1_655  S
O325       Cr329   2.008   1_655  S
O325        C326   1.262       .  A
C326        C445   1.494       .  S
Cr327       O330   1.779       .  S
Cr328       O330   1.780   1_655  S
Cr329       O330   1.779       .  S
O331       Cr349   2.017   1_554  S
O331        C339   1.272   1_554  A
O332       Cr349   1.981       .  S
O332        C333   1.261       .  A
C333        O334   1.267       .  A
C333       C1013   1.488       .  S
O334       Cr350   2.007       .  S
O335       Cr350   2.003       .  S
O335        C336   1.260       .  A
C336        O337   1.258       .  A
C336        C437   1.488       .  S
O337       Cr351   2.002       .  S
O338       Cr351   1.957       .  S
O338        C339   1.262       .  A
C339        C461   1.474       .  S
O340       Cr349   1.999   1_554  S
O340        C348   1.260       .  A
O341       Cr349   2.010       .  S
O341        C342   1.267       .  A
C342        O343   1.261       .  A
C342        C637   1.490       .  S
O343       Cr350   1.979       .  S
O344       Cr350   2.021       .  S
O344        C345   1.274       .  A
C345        O346   1.263       .  A
C345        C725   1.479       .  S
O346       Cr351   1.960       .  S
O347       Cr351   1.999       .  S
O347        C348   1.258   1_556  A
C348        C413   1.482       .  S
Cr349       O352   1.786       .  S
Cr350       O352   1.782       .  S
Cr351       O352   1.781       .  S
O353       Cr371   2.026       .  S
O353        C361   1.276       .  A
O354       Cr371   1.986       .  S
O354        C355   1.263       .  A
C355        O356   1.272       .  A
C355        C597   1.502       .  S
O356       Cr372   2.028       .  S
O357       Cr372   1.993       .  S
O357        C358   1.258       .  A
C358        O359   1.259       .  A
C358        C397   1.478       .  S
O359       Cr373   1.997       .  S
O360       Cr373   1.940       .  S
O360        C361   1.259       .  A
C361       C1093   1.469       .  S
O362       Cr371   2.005   1_455  S
O362        C370   1.261       .  A
O363       Cr371   2.023   1_455  S
O363        C364   1.269       .  A
C364        O365   1.254       .  A
C364        C853   1.476       .  S
O365       Cr372   1.950   1_455  S
O366       Cr372   2.029   1_455  S
O366        C367   1.275       .  A
C367        O368   1.258       .  A
C367        C653   1.474       .  S
O368       Cr373   1.940   1_455  S
O369       Cr373   1.998   1_455  S
O369        C370   1.258       .  A
C370        C421   1.488       .  S
Cr371       O374   1.780       .  S
Cr372       O374   1.775       .  S
Cr373       O374   1.775       .  S
O375       Cr393   2.016       .  S
O375        C383   1.271       .  A
O376       Cr393   1.965       .  S
O376        C377   1.261       .  A
C377        O378   1.272       .  A
C377        C541   1.484       .  S
O378       Cr394   2.020       .  S
O379       Cr394   1.999       .  S
O379        C380   1.259       .  A
C380        O381   1.258       .  A
C380        C429   1.493       .  S
O381       Cr395   2.002       .  S
O382       Cr395   1.955       .  S
O382        C383   1.260       .  A
C383        C485   1.471       .  S
O384       Cr393   1.994       .  S
O384        C392   1.260       .  A
O385       Cr393   2.012       .  S
O385        C386   1.265       .  A
C386        O387   1.258       .  A
C386        C909   1.497       .  S
O387       Cr394   1.983       .  S
O388       Cr394   2.017       .  S
O388        C389   1.275       .  A
C389        O390   1.258       .  A
C389       C1045   1.461       .  S
O390       Cr395   1.942       .  S
O391       Cr395   2.003       .  S
O391        C392   1.262       .  A
C392        C405   1.475       .  S
Cr393       O396   1.781       .  S
Cr394       O396   1.777       .  S
Cr395       O396   1.783       .  S
C397        C398   1.404       .  A
C397        C402   1.406       .  A
C398        C399   1.403       .  A
C398        H407   1.083       .  S
C399        C400   1.406       .  A
C399        H408   1.084       .  S
C400        C406   1.409       .  A
C400        C401   1.414       .  A
C401        C403   1.404       .  A
C401        C402   1.406       .  A
C402        H409   1.085       .  S
C403        C404   1.399       .  A
C403        H410   1.084       .  S
C404        C405   1.401       .  A
C404        H411   1.083       .  S
C405        C406   1.408       .  A
C406        H412   1.085       .  S
C413        C414   1.403       .  A
C413        C418   1.409       .  A
C414        C415   1.402       .  A
C414        H423   1.083       .  S
C415        C416   1.405       .  A
C415        H424   1.083       .  S
C416        C422   1.410       .  A
C416        C417   1.414       .  A
C417        C419   1.406       .  A
C417        C418   1.412       .  A
C418        H425   1.084       .  S
C419        C420   1.404       .  A
C419        H426   1.083       .  S
C420        C421   1.404       .  A
C420        H427   1.083       .  S
C421        C422   1.410       .  A
C422        H428   1.084       .  S
C429        C430   1.406       .  A
C429        C434   1.412       .  A
C430        C431   1.403       .  A
C430        H439   1.083       .  S
C431        C432   1.405       .  A
C431        H440   1.083       .  S
C432        C438   1.412   1_655  A
C432        C433   1.413   1_655  A
C433        C435   1.406       .  A
C433        C434   1.413   1_455  A
C434        H441   1.084       .  S
C435        C436   1.404       .  A
C435        H442   1.083       .  S
C436        C437   1.404       .  A
C436        H443   1.083       .  S
C437        C438   1.410       .  A
C438        H444   1.084       .  S
C445        C446   1.404       .  A
C445        C450   1.414       .  A
C446        C447   1.404       .  A
C446        H455   1.083       .  S
C447        C448   1.406       .  A
C447        H456   1.083       .  S
C448        C454   1.414       .  A
C448        C449   1.413       .  A
C449        C451   1.408       .  A
C449        C450   1.417       .  A
C450        H457   1.084       .  S
C451        C452   1.407       .  A
C451        H458   1.083       .  S
C452        C453   1.405       .  A
C452        H459   1.083       .  S
C453        C454   1.411       .  A
C454        H460   1.084       .  S
C461        C462   1.405   1_556  A
C461        C466   1.407       .  A
C462        C463   1.395       .  A
C462        H471   1.083       .  S
C463        C464   1.402   1_455  A
C463        H472   1.084       .  S
C464        C470   1.398       .  A
C464        C465   1.412   1_554  A
C465        C467   1.403       .  A
C465        C466   1.399   1_655  A
C466        H473   1.084       .  S
C467        C468   1.396       .  A
C467        H474   1.084       .  S
C468        C469   1.404       .  A
C468        H475   1.083       .  S
C469        C470   1.407   1_556  A
C470        H476   1.084       .  S
C477        C478   1.404       .  A
C477        C482   1.406       .  A
C478        C479   1.393       .  A
C478        H487   1.083       .  S
C479        C480   1.401   1_455  A
C479        H488   1.084       .  S
C480        C486   1.395       .  A
C480        C481   1.412       .  A
C481        C483   1.402       .  A
C481        C482   1.397   1_655  A
C482        H489   1.084   1_455  S
C483        C484   1.395       .  A
C483        H490   1.084       .  S
C484        C485   1.405       .  A
C484        H491   1.083       .  S
C485        C486   1.404       .  A
C486        H492   1.084       .  S
C493        C494   1.403       .  A
C493        C498   1.407       .  A
C494        C495   1.401       .  A
C494        H503   1.083       .  S
C495        C496   1.405       .  A
C495        H504   1.084       .  S
C496        C502   1.407       .  A
C496        C497   1.414       .  A
C497        C499   1.405       .  A
C497        C498   1.408       .  A
C498        H505   1.084       .  S
C499        C500   1.401       .  A
C499        H506   1.083       .  S
C500        C501   1.403       .  A
C500        H507   1.083       .  S
C501        C502   1.407       .  A
C502        H508   1.084       .  S
C509        C510   1.406       .  A
C509        C514   1.409   1_455  A
C510        C511   1.402       .  A
C510        H519   1.083       .  S
C511        C512   1.405   1_455  A
C511        H520   1.083       .  S
C512        C518   1.411       .  A
C512        C513   1.414       .  A
C513        C515   1.404       .  A
C513        C514   1.410       .  A
C514        H521   1.084       .  S
C515        C516   1.401       .  A
C515        H522   1.083       .  S
C516        C517   1.403       .  A
C516        H523   1.083       .  S
C517        C518   1.408       .  A
C518        H524   1.084       .  S
C525        C526   1.403       .  A
C525        C530   1.405       .  A
C526        C527   1.396       .  A
C526        H535   1.083       .  S
C527        C528   1.404       .  A
C527        H536   1.084       .  S
C528        C534   1.392       .  A
C528        C529   1.410       .  A
C529        C531   1.401       .  A
C529        C530   1.387       .  A
C530        H537   1.085       .  S
C531        C532   1.390       .  A
C531        H538   1.084       .  S
C532        C533   1.401       .  A
C532        H539   1.083       .  S
C533        C534   1.408       .  A
C534        H540   1.084       .  S
C541        C542   1.405       .  A
C541        C546   1.409       .  A
C542        C543   1.402       .  A
C542        H551   1.083       .  S
C543        C544   1.405       .  A
C543        H552   1.083       .  S
C544        C550   1.408       .  A
C544        C545   1.412       .  A
C545        C547   1.402       .  A
C545        C546   1.403       .  A
C546        H553   1.084       .  S
C547        C548   1.397       .  A
C547        H554   1.084       .  S
C548        C549   1.405       .  A
C548        H555   1.083       .  S
C549        C550   1.410       .  A
C550        H556   1.084       .  S
C557        C558   1.408       .  A
C557        C562   1.403       .  A
C558        C559   1.393       .  A
C558        H567   1.083       .  S
C559        C560   1.399       .  A
C559        H568   1.084       .  S
C560        C566   1.399       .  A
C560        C561   1.414       .  A
C561        C563   1.400       .  A
C561        C562   1.402       .  A
C562        H569   1.084       .  S
C563        C564   1.395       .  A
C563        H570   1.084       .  S
C564        C565   1.406       .  A
C564        H571   1.083       .  S
C565        C566   1.404       .  A
C566        H572   1.084       .  S
C573        C574   1.403       .  A
C573        C578   1.410       .  A
C574        C575   1.404       .  A
C574        H583   1.083       .  S
C575        C576   1.406       .  A
C575        H584   1.083       .  S
C576        C582   1.412       .  A
C576        C577   1.413       .  A
C577        C579   1.406       .  A
C577        C578   1.412       .  A
C578        H585   1.084       .  S
C579        C580   1.404       .  A
C579        H586   1.083       .  S
C580        C581   1.405       .  A
C580        H587   1.083       .  S
C581        C582   1.412       .  A
C582        H588   1.084       .  S
C589        C590   1.406       .  A
C589        C594   1.415       .  A
C590        C591   1.404       .  A
C590        H599   1.083       .  S
C591        C592   1.405       .  A
C591        H600   1.083       .  S
C592        C598   1.414       .  A
C592        C593   1.412       .  A
C593        C595   1.407       .  A
C593        C594   1.416       .  A
C594        H601   1.084       .  S
C595        C596   1.406       .  A
C595        H602   1.083       .  S
C596        C597   1.408       .  A
C596        H603   1.083       .  S
C597        C598   1.415       .  A
C598        H604   1.084       .  S
C605        C606   1.403       .  A
C605        C610   1.411       .  A
C606        C607   1.404       .  A
C606        H615   1.083       .  S
C607        C608   1.406       .  A
C607        H616   1.083       .  S
C608        C614   1.413       .  A
C608        C609   1.413       .  A
C609        C611   1.406       .  A
C609        C610   1.414       .  A
C610        H617   1.084       .  S
C611        C612   1.405       .  A
C611        H618   1.083       .  S
C612        C613   1.405       .  A
C612        H619   1.083       .  S
C613        C614   1.412       .  A
C614        H620   1.084       .  S
C621        C622   1.403       .  A
C621        C626   1.407       .  A
C622        C623   1.402       .  A
C622        H631   1.083       .  S
C623        C624   1.405       .  A
C623        H632   1.083       .  S
C624        C630   1.409   1_545  A
C624        C625   1.414       .  A
C625        C627   1.405   1_545  A
C625        C626   1.409       .  A
C626        H633   1.085       .  S
C627        C628   1.401       .  A
C627        H634   1.083       .  S
C628        C629   1.403       .  A
C628        H635   1.083       .  S
C629        C630   1.409       .  A
C630        H636   1.084   1_565  S
C637        C638   1.407       .  A
C637        C642   1.409       .  A
C638        C639   1.404       .  A
C638        H647   1.083   1_556  S
C639        C640   1.405       .  A
C639        H648   1.083   1_556  S
C640        C646   1.412       .  A
C640        C641   1.413       .  A
C641        C643   1.401       .  A
C641        C642   1.406       .  A
C642        H649   1.084       .  S
C643        C644   1.397       .  A
C643        H650   1.084       .  S
C644        C645   1.407       .  A
C644        H651   1.083       .  S
C645        C646   1.411       .  A
C646        H652   1.084       .  S
C653        C654   1.404       .  A
C653        C658   1.407       .  A
C654        C655   1.398       .  A
C654        H663   1.083       .  S
C655        C656   1.404       .  A
C655        H664   1.084       .  S
C656        C662   1.399       .  A
C656        C657   1.412       .  A
C657        C659   1.402       .  A
C657        C658   1.394       .  A
C658        H665   1.085       .  S
C659        C660   1.393       .  A
C659        H666   1.084       .  S
C660        C661   1.401       .  A
C660        H667   1.083       .  S
C661        C662   1.404       .  A
C662        H668   1.085       .  S
C669        C670   1.403       .  A
C669        C674   1.399       .  A
C670        C671   1.390   1_565  A
C670        H679   1.083       .  S
C671        C672   1.398       .  A
C671        H680   1.084       .  S
C672        C678   1.392       .  A
C672        C673   1.415   1_545  A
C673        C675   1.398       .  A
C673        C674   1.392       .  A
C674        H681   1.085       .  S
C675        C676   1.390       .  A
C675        H682   1.084       .  S
C676        C677   1.405   1_565  A
C676        H683   1.083       .  S
C677        C678   1.398       .  A
C678        H684   1.085       .  S
C685        C686   1.404       .  A
C685        C690   1.406       .  A
C686        C687   1.400       .  A
C686        H695   1.083       .  S
C687        C688   1.405       .  A
C687        H696   1.083       .  S
C688        C694   1.403       .  A
C688        C689   1.412       .  A
C689        C691   1.402       .  A
C689        C690   1.399       .  A
C690        H697   1.085       .  S
C691        C692   1.396       .  A
C691        H698   1.084       .  S
C692        C693   1.404       .  A
C692        H699   1.083       .  S
C693        C694   1.410       .  A
C694        H700   1.084       .  S
C701        C702   1.406       .  A
C701        C706   1.406       .  A
C702        C703   1.407       .  A
C702        H711   1.083       .  S
C703        C704   1.407       .  A
C703        H712   1.083       .  S
C704        C710   1.415       .  A
C704        C705   1.414       .  A
C705        C707   1.399       .  A
C705        C706   1.404       .  A
C706        H713   1.085       .  S
C707        C708   1.394       .  A
C707        H714   1.084       .  S
C708        C709   1.408       .  A
C708        H715   1.083       .  S
C709        C710   1.413       .  A
C710        H716   1.084       .  S
C717        C718   1.408       .  A
C717        C722   1.404       .  A
C718        C719   1.397       .  A
C718        H727   1.083       .  S
C719        C720   1.401       .  A
C719        H728   1.084       .  S
C720        C726   1.404       .  A
C720        C721   1.414       .  A
C721        C723   1.399       .  A
C721        C722   1.401       .  A
C722        H729   1.084       .  S
C723        C724   1.394       .  A
C723        H730   1.084       .  S
C724        C725   1.407       .  A
C724        H731   1.083       .  S
C725        C726   1.406       .  A
C726        H732   1.084       .  S
C733        C734   1.406       .  A
C733        C738   1.412       .  A
C734        C735   1.403       .  A
C734        H743   1.083       .  S
C735        C736   1.406       .  A
C735        H744   1.083       .  S
C736        C742   1.410       .  A
C736        C737   1.412       .  A
C737        C739   1.404       .  A
C737        C738   1.408       .  A
C738        H745   1.084       .  S
C739        C740   1.401       .  A
C739        H746   1.083       .  S
C740        C741   1.406       .  A
C740        H747   1.083       .  S
C741        C742   1.413       .  A
C742        H748   1.084       .  S
C749        C750   1.403   1_554  A
C749        C754   1.405       .  A
C750        C751   1.397       .  A
C750        H759   1.083       .  S
C751        C752   1.404       .  A
C751        H760   1.084       .  S
C752        C758   1.397   1_545  A
C752        C753   1.412   1_556  A
C753        C755   1.402   1_545  A
C753        C754   1.394       .  A
C754        H761   1.085       .  S
C755        C756   1.394       .  A
C755        H762   1.084       .  S
C756        C757   1.402   1_554  A
C756        H763   1.083       .  S
C757        C758   1.407       .  A
C758        H764   1.085       .  S
C765        C766   1.405       .  A
C765        C770   1.411       .  A
C766        C767   1.406       .  A
C766        H775   1.083       .  S
C767        C768   1.407       .  A
C767        H776   1.083       .  S
C768        C774   1.415       .  A
C768        C769   1.413       .  A
C769        C771   1.405       .  A
C769        C770   1.412       .  A
C770        H777   1.084       .  S
C771        C772   1.402       .  A
C771        H778   1.083       .  S
C772        C773   1.403       .  A
C772        H779   1.083       .  S
C773        C774   1.411       .  A
C774        H780   1.084       .  S
C781        C782   1.407       .  A
C781        C786   1.413       .  A
C782        C783   1.398       .  A
C782        H791   1.083       .  S
C783        C784   1.401       .  A
C783        H792   1.084       .  S
C784        C790   1.408   1_565  A
C784        C785   1.414   1_565  A
C785        C787   1.406       .  A
C785        C786   1.415   1_545  A
C786        H793   1.084       .  S
C787        C788   1.405       .  A
C787        H794   1.083       .  S
C788        C789   1.406       .  A
C788        H795   1.083       .  S
C789        C790   1.408       .  A
C790        H796   1.084       .  S
C797        C798   1.405       .  A
C797        C802   1.411       .  A
C798        C799   1.402       .  A
C798        H807   1.083   1_554  S
C799        C800   1.406       .  A
C799        H808   1.083   1_554  S
C800        C806   1.408       .  A
C800        C801   1.412       .  A
C801        C803   1.404       .  A
C801        C802   1.406       .  A
C802        H809   1.084       .  S
C803        C804   1.400       .  A
C803        H810   1.083       .  S
C804        C805   1.406       .  A
C804        H811   1.083       .  S
C805        C806   1.413       .  A
C806        H812   1.084       .  S
C813        C814   1.405       .  A
C813        C818   1.400       .  A
C814        C815   1.395       .  A
C814        H823   1.083       .  S
C815        C816   1.400       .  A
C815        H824   1.084       .  S
C816        C822   1.400       .  A
C816        C817   1.416       .  A
C817        C819   1.398       .  A
C817        C818   1.396       .  A
C818        H825   1.085       .  S
C819        C820   1.391       .  A
C819        H826   1.084       .  S
C820        C821   1.405       .  A
C820        H827   1.083       .  S
C821        C822   1.402       .  A
C822        H828   1.085       .  S
C829        C830   1.401       .  A
C829        C834   1.407       .  A
C830        C831   1.391       .  A
C830        H839   1.083       .  S
C831        C832   1.402       .  A
C831        H840   1.084       .  S
C832        C838   1.387       .  A
C832        C833   1.410       .  A
C833        C835   1.404       .  A
C833        C834   1.390       .  A
C834        H841   1.084       .  S
C835        C836   1.395       .  A
C835        H842   1.084       .  S
C836        C837   1.401       .  A
C836        H843   1.083       .  S
C837        C838   1.406       .  A
C838        H844   1.085       .  S
C845        C846   1.410       .  A
C845        C850   1.403       .  A
C846        C847   1.399       .  A
C846        H855   1.083       .  S
C847        C848   1.400   1_545  A
C847        H856   1.084       .  S
C848        C854   1.410       .  A
C848        C849   1.417   1_565  A
C849        C851   1.396   1_545  A
C849        C850   1.403       .  A
C850        H857   1.084       .  S
C851        C852   1.391       .  A
C851        H858   1.084       .  S
C852        C853   1.407       .  A
C852        H859   1.084       .  S
C853        C854   1.403       .  A
C854        H860   1.084       .  S
C861        C862   1.406       .  A
C861        C866   1.412       .  A
C862        C863   1.404       .  A
C862        H871   1.083       .  S
C863        C864   1.406   1_655  A
C863        H872   1.083       .  S
C864        C870   1.413       .  A
C864        C865   1.412   1_455  A
C865        C867   1.404   1_655  A
C865        C866   1.409       .  A
C866        H873   1.084       .  S
C867        C868   1.401       .  A
C867        H874   1.083   1_455  S
C868        C869   1.407       .  A
C868        H875   1.083       .  S
C869        C870   1.414       .  A
C870        H876   1.084       .  S
C877        C878   1.399       .  A
C877        C882   1.402       .  A
C878        C879   1.394       .  A
C878        H887   1.083       .  S
C879        C880   1.403       .  A
C879        H888   1.084       .  S
C880        C886   1.393       .  A
C880        C881   1.412       .  A
C881        C883   1.402       .  A
C881        C882   1.395       .  A
C882        H889   1.084       .  S
C883        C884   1.396       .  A
C883        H890   1.084       .  S
C884        C885   1.404       .  A
C884        H891   1.083       .  S
C885        C886   1.405       .  A
C886        H892   1.084       .  S
C893        C894   1.410       .  A
C893        C898   1.409       .  A
C894        C895   1.405       .  A
C894        H903   1.083       .  S
C895        C896   1.405       .  A
C895        H904   1.083       .  S
C896        C902   1.419       .  A
C896        C897   1.416       .  A
C897        C899   1.401       .  A
C897        C898   1.412       .  A
C898        H905   1.084       .  S
C899        C900   1.397       .  A
C899        H906   1.084       .  S
C900        C901   1.406       .  A
C900        H907   1.084       .  S
C901        C902   1.410       .  A
C902        H908   1.084       .  S
C909        C910   1.410       .  A
C909        C914   1.407       .  A
C910        C911   1.405       .  A
C910        H919   1.083       .  S
C911        C912   1.404       .  A
C911        H920   1.083       .  S
C912        C918   1.420       .  A
C912        C913   1.416       .  A
C913        C915   1.398       .  A
C913        C914   1.411       .  A
C914        H921   1.084       .  S
C915        C916   1.396       .  A
C915        H922   1.084       .  S
C916        C917   1.411       .  A
C916        H923   1.083       .  S
C917        C918   1.412       .  A
C918        H924   1.083       .  S
C925        C926   1.407       .  A
C925        C930   1.411       .  A
C926        C927   1.406       .  A
C926        H935   1.083       .  S
C927        C928   1.407       .  A
C927        H936   1.083       .  S
C928        C934   1.414       .  A
C928        C929   1.412       .  A
C929        C931   1.402       .  A
C929        C930   1.407       .  A
C930        H937   1.084       .  S
C931        C932   1.398       .  A
C931        H938   1.084       .  S
C932        C933   1.407       .  A
C932        H939   1.083       .  S
C933        C934   1.414       .  A
C934        H940   1.084       .  S
C941        C942   1.408       .  A
C941        C946   1.418       .  A
C942        C943   1.402       .  A
C942        H951   1.083       .  S
C943        C944   1.403       .  A
C943        H952   1.083       .  S
C944        C950   1.414       .  A
C944        C945   1.413       .  A
C945        C947   1.409       .  A
C945        C946   1.419       .  A
C946        H953   1.084       .  S
C947        C948   1.408       .  A
C947        H954   1.083       .  S
C948        C949   1.406       .  A
C948        H955   1.083       .  S
C949        C950   1.410       .  A
C950        H956   1.084       .  S
C957        C958   1.405       .  A
C957        C962   1.408       .  A
C958        C959   1.404       .  A
C958        H967   1.083       .  S
C959        C960   1.406       .  A
C959        H968   1.083       .  S
C960        C966   1.412       .  A
C960        C961   1.414       .  A
C961        C963   1.404       .  A
C961        C962   1.409       .  A
C962        H969   1.084       .  S
C963        C964   1.400       .  A
C963        H970   1.083       .  S
C964        C965   1.403       .  A
C964        H971   1.083       .  S
C965        C966   1.410       .  A
C966        H972   1.084       .  S
C973        C974   1.407       .  A
C973        C978   1.400       .  A
C974        C975   1.391       .  A
C974        H983   1.083       .  S
C975        C976   1.398       .  A
C975        H984   1.084       .  S
C976        C982   1.396       .  A
C976        C977   1.415       .  A
C977        C979   1.397       .  A
C977        C978   1.395       .  A
C978        H985   1.084       .  S
C979        C980   1.390       .  A
C979        H986   1.084       .  S
C980        C981   1.407       .  A
C980        H987   1.083       .  S
C981        C982   1.400       .  A
C982        H988   1.084       .  S
C989        C990   1.410       .  A
C989        C994   1.407       .  A
C990        C991   1.400       .  A
C990        H999   1.083       .  S
C991        C992   1.402       .  A
C991       H1000   1.083       .  S
C992        C998   1.414       .  A
C992        C993   1.415       .  A
C993        C995   1.400       .  A
C993        C994   1.412       .  A
C994       H1001   1.084       .  S
C995        C996   1.399       .  A
C995       H1002   1.084   1_556  S
C996        C997   1.410       .  A
C996       H1003   1.083   1_556  S
C997        C998   1.410       .  A
C998       H1004   1.084       .  S
C1005      C1006   1.407       .  A
C1005      C1010   1.409       .  A
C1006      C1007   1.402       .  A
C1006      H1015   1.083   1_556  S
C1007      C1008   1.404       .  A
C1007      H1016   1.083   1_556  S
C1008      C1014   1.410       .  A
C1008      C1009   1.413       .  A
C1009      C1011   1.403       .  A
C1009      C1010   1.408       .  A
C1010      H1017   1.084       .  S
C1011      C1012   1.399       .  A
C1011      H1018   1.083       .  S
C1012      C1013   1.405       .  A
C1012      H1019   1.083       .  S
C1013      C1014   1.411       .  A
C1014      H1020   1.084       .  S
C1021      C1022   1.405       .  A
C1021      C1026   1.402       .  A
C1022      C1023   1.389       .  A
C1022      H1031   1.083       .  S
C1023      C1024   1.398       .  A
C1023      H1032   1.084       .  S
C1024      C1030   1.393       .  A
C1024      C1025   1.414       .  A
C1025      C1027   1.400       .  A
C1025      C1026   1.396       .  A
C1026      H1033   1.085       .  S
C1027      C1028   1.393       .  A
C1027      H1034   1.084       .  S
C1028      C1029   1.406       .  A
C1028      H1035   1.083       .  S
C1029      C1030   1.400       .  A
C1030      H1036   1.085       .  S
C1037      C1038   1.404       .  A
C1037      C1042   1.403       .  A
C1038      C1039   1.390       .  A
C1038      H1047   1.084       .  S
C1039      C1040   1.398       .  A
C1039      H1048   1.084       .  S
C1040      C1046   1.395       .  A
C1040      C1041   1.416       .  A
C1041      C1043   1.402       .  A
C1041      C1042   1.402       .  A
C1042      H1049   1.085       .  S
C1043      C1044   1.397       .  A
C1043      H1050   1.084       .  S
C1044      C1045   1.405       .  A
C1044      H1051   1.083       .  S
C1045      C1046   1.398       .  A
C1046      H1052   1.085       .  S
C1053      C1054   1.411       .  A
C1053      C1058   1.406       .  A
C1054      C1055   1.399       .  A
C1054      H1063   1.083       .  S
C1055      C1056   1.400   1_545  A
C1055      H1064   1.083       .  S
C1056      C1062   1.412       .  A
C1056      C1057   1.416   1_565  A
C1057      C1059   1.399   1_545  A
C1057      C1058   1.410       .  A
C1058      H1065   1.084       .  S
C1059      C1060   1.397       .  A
C1059      H1066   1.084   1_565  S
C1060      C1061   1.410       .  A
C1060      H1067   1.083       .  S
C1061      C1062   1.407       .  A
C1062      H1068   1.084       .  S
C1069      C1070   1.407       .  A
C1069      C1074   1.408       .  A
C1070      C1071   1.398       .  A
C1070      H1079   1.083       .  S
C1071      C1072   1.402   1_655  A
C1071      H1080   1.083       .  S
C1072      C1078   1.407       .  A
C1072      C1073   1.414   1_455  A
C1073      C1075   1.403   1_655  A
C1073      C1074   1.409       .  A
C1074      H1081   1.084       .  S
C1075      C1076   1.400       .  A
C1075      H1082   1.083   1_455  S
C1076      C1077   1.407       .  A
C1076      H1083   1.083       .  S
C1077      C1078   1.408       .  A
C1078      H1084   1.084       .  S
C1085      C1086   1.408       .  A
C1085      C1090   1.400       .  A
C1086      C1087   1.392       .  A
C1086      H1095   1.083       .  S
C1087      C1088   1.398       .  A
C1087      H1096   1.084       .  S
C1088      C1094   1.398       .  A
C1088      C1089   1.415       .  A
C1089      C1091   1.397       .  A
C1089      C1090   1.396       .  A
C1090      H1097   1.084       .  S
C1091      C1092   1.390       .  A
C1091      H1098   1.084       .  S
C1092      C1093   1.408       .  A
C1092      H1099   1.083       .  S
C1093      C1094   1.401       .  A
C1094      H1100   1.084       .  S
C1101      C1102   1.404       .  A
C1101      C1106   1.409       .  A
C1102      C1103   1.402       .  A
C1102      H1111   1.083       .  S
C1103      C1104   1.405       .  A
C1103      H1112   1.083       .  S
C1104      C1110   1.409       .  A
C1104      C1105   1.414       .  A
C1105      C1107   1.405       .  A
C1105      C1106   1.409       .  A
C1106      H1113   1.084       .  S
C1107      C1108   1.402       .  A
C1107      H1114   1.083       .  S
C1108      C1109   1.403       .  A
C1108      H1115   1.083       .  S
C1109      C1110   1.407       .  A
C1110      H1116   1.084       .  S
C1117      C1118   1.403   1_554  A
C1117      C1122   1.404       .  A
C1118      C1119   1.391       .  A
C1118      H1127   1.083       .  S
C1119      C1120   1.400       .  A
C1119      H1128   1.084       .  S
C1120      C1126   1.391       .  A
C1120      C1121   1.413   1_556  A
C1121      C1123   1.401       .  A
C1121      C1122   1.392       .  A
C1122      H1129   1.085       .  S
C1123      C1124   1.393       .  A
C1123      H1130   1.084       .  S
C1124      C1125   1.404       .  A
C1124      H1131   1.083       .  S
C1125      C1126   1.402   1_554  A
C1126      H1132   1.085       .  S
C1133      C1134   1.408       .  A
C1133      C1138   1.409       .  A
C1134      C1135   1.403       .  A
C1134      H1143   1.083       .  S
C1135      C1136   1.405       .  A
C1135      H1144   1.083       .  S
C1136      C1142   1.412       .  A
C1136      C1137   1.413       .  A
C1137      C1139   1.402       .  A
C1137      C1138   1.409       .  A
C1138      H1145   1.084       .  S
C1139      C1140   1.399       .  A
C1139      H1146   1.083   1_554  S
C1140      C1141   1.407       .  A
C1140      H1147   1.083   1_554  S
C1141      C1142   1.412       .  A
C1142      H1148   1.084       .  S
C1149      C1150   1.410       .  A
C1149      C1154   1.408       .  A
C1150      C1151   1.397       .  A
C1150      H1159   1.083   1_554  S
C1151      C1152   1.399       .  A
C1151      H1160   1.084   1_554  S
C1152      C1158   1.411       .  A
C1152      C1153   1.416       .  A
C1153      C1155   1.401       .  A
C1153      C1154   1.413       .  A
C1154      H1161   1.084       .  S
C1155      C1156   1.400       .  A
C1155      H1162   1.084       .  S
C1156      C1157   1.410       .  A
C1156      H1163   1.083       .  S
C1157      C1158   1.406       .  A
C1158      H1164   1.084       .  S
C1165      C1166   1.405       .  A
C1165      C1170   1.412       .  A
C1166      C1167   1.406       .  A
C1166      H1175   1.083       .  S
C1167      C1168   1.408       .  A
C1167      H1176   1.083       .  S
C1168      C1174   1.415       .  A
C1168      C1169   1.413       .  A
C1169      C1171   1.406       .  A
C1169      C1170   1.411       .  A
C1170      H1177   1.084       .  S
C1171      C1172   1.403       .  A
C1171      H1178   1.083       .  S
C1172      C1173   1.403       .  A
C1172      H1179   1.083       .  S
C1173      C1174   1.412       .  A
C1174      H1180   1.084       .  S
C1181      C1182   1.404       .  A
C1181      C1186   1.410       .  A
C1182      C1183   1.405       .  A
C1182      H1191   1.083       .  S
C1183      C1184   1.407       .  A
C1183      H1192   1.083       .  S
C1184      C1190   1.412       .  A
C1184      C1185   1.413       .  A
C1185      C1187   1.406       .  A
C1185      C1186   1.411       .  A
C1186      H1193   1.084       .  S
C1187      C1188   1.404       .  A
C1187      H1194   1.083       .  S
C1188      C1189   1.404       .  A
C1188      H1195   1.083       .  S
C1189      C1190   1.413       .  A
C1190      H1196   1.084       .  S
C1197      C1198   1.409       .  A
C1197      C1202   1.402       .  A
C1198      C1199   1.389       .  A
C1198      H1207   1.083       .  S
C1199      C1200   1.395       .  A
C1199      H1208   1.084       .  S
C1200      C1206   1.399       .  A
C1200      C1201   1.417       .  A
C1201      C1203   1.399       .  A
C1201      C1202   1.405       .  A
C1202      H1209   1.084       .  S
C1203      C1204   1.395       .  A
C1203      H1210   1.084       .  S
C1204      C1205   1.409       .  A
C1204      H1211   1.083       .  S
C1205      C1206   1.398       .  A
C1206      H1212   1.085       .  S
C1213      C1214   1.407       .  A
C1213      C1218   1.403       .  A
C1214      C1215   1.390       .  A
C1214      H1223   1.083       .  S
C1215      C1216   1.397       .  A
C1215      H1224   1.084       .  S
C1216      C1222   1.396       .  A
C1216      C1217   1.416       .  A
C1217      C1219   1.401       .  A
C1217      C1218   1.401       .  A
C1218      H1225   1.084       .  S
C1219      C1220   1.395       .  A
C1219      H1226   1.084       .  S
C1220      C1221   1.406       .  A
C1220      H1227   1.083       .  S
C1221      C1222   1.399       .  A
C1222      H1228   1.085       .  S
C1229      C1230   1.405       .  A
C1229      C1234   1.412       .  A
C1230      C1231   1.403       .  A
C1230      H1239   1.083       .  S
C1231      C1232   1.407       .  A
C1231      H1240   1.083       .  S
C1232      C1238   1.408       .  A
C1232      C1233   1.411       .  A
C1233      C1235   1.404       .  A
C1233      C1234   1.404       .  A
C1234      H1241   1.084       .  S
C1235      C1236   1.399       .  A
C1235      H1242   1.084       .  S
C1236      C1237   1.405       .  A
C1236      H1243   1.083       .  S
C1237      C1238   1.413       .  A
C1238      H1244   1.084       .  S
C1245      C1246   1.412       .  A
C1245      C1250   1.412       .  A
C1246      C1247   1.398       .  A
C1246      H1255   1.083       .  S
C1247      C1248   1.399       .  A
C1247      H1256   1.084       .  S
C1248      C1254   1.414       .  A
C1248      C1249   1.416       .  A
C1249      C1251   1.404       .  A
C1249      C1250   1.418       .  A
C1250      H1257   1.084       .  S
C1251      C1252   1.403       .  A
C1251      H1258   1.083       .  S
C1252      C1253   1.408       .  A
C1252      H1259   1.083       .  S
C1253      C1254   1.406       .  A
C1254      H1260   1.084       .  S
