geometry optimzed in LAMMPS
_audit_creation_date              2020-11-30 
_audit_creation_method            'lammps2cif' 
_symmetry_space_group_name_H-M    'P1' 
_symmetry_Int_Tables_number       1 
_symmetry_cell_setting            triclinic 
loop_ 
_symmetry_equiv_pos_as_xyz 
  x,y,z 
_cell_length_a                    35.62277126 
_cell_length_b                    35.577045353180445 
_cell_length_c                    53.48058427891101 
_cell_angle_alpha                 89.6051967595478 
_cell_angle_beta                  90.27069243135377 
_cell_angle_gamma                 120.34297353108123 
loop_ 
_atom_site_label 
_atom_site_type_symbol 
_atom_site_fract_x 
_atom_site_fract_y 
_atom_site_fract_z 
_atom_site_charge 
O1          O  0.27456916  0.00525443  0.65425877    -0.85800
O2          O  0.35062137  0.04204907  0.62775567    -0.82800
C3          C  0.34480352  0.06376321  0.61078664     0.97700
O4          O  0.34235864  0.09675661  0.61637837    -0.82900
O5          O  0.32984122  0.15563071  0.64391247    -0.85500
C6          C  0.28893683  0.13656694  0.64789981     1.02200
O7          O  0.27083265  0.10170951  0.66017858    -0.78300
O8          O  0.25328127  0.02873409  0.68583865    -0.78500
C9          C  0.24446363  0.00185370  0.66804485     1.02100
O10         O  0.32126702  0.02116833  0.70112956    -0.85800
O11         O  0.39723211  0.06508685  0.67466488    -0.82900
C12         C  0.42741581  0.09366886  0.66142450     0.97700
O13         O  0.41908158  0.11524862  0.64544982    -0.82900
O14         O  0.40185483  0.16618580  0.67529155    -0.85500
C15         C  0.38367509  0.18081825  0.68886491     1.02200
O16         O  0.34283328  0.15807108  0.69269510    -0.78300
O17         O  0.33061188  0.08254287  0.71601803    -0.78500
C18         C  0.32853562  0.04650271  0.71946423     1.02100
Cr19       Cr  0.33589634  0.03684194  0.66456424     1.93700
Cr20       Cr  0.37073526  0.13032782  0.64650924     1.93200
Cr21       Cr  0.30193234  0.09234445  0.68736660     1.39100
O22         O  0.33615745  0.08643413  0.66610632    -1.23500
O23         O  0.34637994  0.93823684  0.00892178    -0.85800
O24         O  0.38526281  0.01495507  0.03474654    -0.82800
C25         C  0.40244053  0.00566384  0.05285605     0.97700
O26         O  0.43496863  0.00139919  0.04908538    -0.82900
O27         O  0.49492690  0.98594907  0.02496480    -0.85500
C28         C  0.47451152  0.94495665  0.02174330     1.02200
O29         O  0.44089366  0.92752031  0.00850208    -0.78300
O30         O  0.37129994  0.91245918  0.98032971    -0.78500
C31         C  0.34234548  0.90668941  0.99625556     1.02100
O32         O  0.36973835  0.98323341  0.96176655    -0.85800
O33         O  0.41655316  0.06011299  0.98708540    -0.82900
C34         C  0.44555292  0.08953427  0.00044410     0.97700
O35         O  0.46155971  0.07917234  0.01871395    -0.82900
O36         O  0.51226900  0.05785116  0.99217709    -0.85500
C37         C  0.52536162  0.03823261  0.97862086     1.02200
O38         O  0.50177443  0.99727028  0.97533520    -0.78300
O39         O  0.42962867  0.98635829  0.94911394    -0.78500
C40         C  0.39499742  0.98630612  0.94422080     1.02100
Cr41       Cr  0.38290422  0.99904134  0.99821924     1.93700
Cr42       Cr  0.47276586  0.02854109  0.01995108     1.93200
Cr43       Cr  0.43561954  0.95859610  0.97962977     1.39100
O44         O  0.43033371  0.99525130  0.99921947    -1.23500
O45         O  0.26690139  0.99900414  0.34051929    -0.85800
O46         O  0.30792000  0.96495162  0.36782363    -0.82800
C47         C  0.28181917  0.94708892  0.38591610     0.97700
O48         O  0.24533268  0.91343917  0.38233567    -0.82900
O49         O  0.16998190  0.85035487  0.35802579    -0.85500
C50         C  0.14790826  0.86870411  0.35311208     1.02200
O51         O  0.16388074  0.90171966  0.33929094    -0.78300
O52         O  0.21755609  0.97109479  0.31095530    -0.78500
C53         C  0.23791009  0.00010549  0.32750892     1.02100
O54         O  0.29217441  0.97615939  0.29434830    -0.85800
O55         O  0.32529766  0.93452247  0.32204782    -0.82900
C56         C  0.32742337  0.90742458  0.33638272     0.97700
O57         O  0.29917126  0.88885057  0.35361597    -0.82900
O58         O  0.22731633  0.83430504  0.32710342    -0.85500
C59         C  0.19404479  0.81879207  0.31358241     1.02200
O60         O  0.17612358  0.84127621  0.30873684    -0.78300
O61         O  0.23744229  0.91376850  0.28206466    -0.78500
C62         C  0.27182823  0.94892751  0.27712264     1.02100
Cr63       Cr  0.29443033  0.96512082  0.33122859     1.93700
Cr64       Cr  0.23596240  0.87481422  0.35390494     1.93200
Cr65       Cr  0.20190390  0.90750345  0.31156876     1.39100
O66         O  0.24411434  0.91581542  0.33220543    -1.23500
O67         O  0.67573514  0.60266399  0.67833193    -0.85800
O68         O  0.71107557  0.67750441  0.70541852    -0.82800
C69         C  0.73151544  0.67007600  0.72246037     0.97700
O70         O  0.76535357  0.66896988  0.71718162    -0.82900
O71         O  0.82497371  0.65730988  0.68986907    -0.85500
C72         C  0.80614212  0.61659185  0.68541151     1.02200
O73         O  0.77231761  0.59891340  0.67231507    -0.78300
O74         O  0.69979748  0.58213125  0.64664936    -0.78500
C75         C  0.67274007  0.57287678  0.66444455     1.02100
O76         O  0.69224500  0.65010830  0.63169104    -0.85800
O77         O  0.73635401  0.72578225  0.65853595    -0.82900
C78         C  0.76539237  0.75574405  0.67161136     0.97700
O79         O  0.78522226  0.74666735  0.68832757    -0.82900
O80         O  0.83720865  0.73052078  0.65906341    -0.85500
C81         C  0.85186146  0.71295414  0.64500826     1.02200
O82         O  0.82914792  0.67227466  0.64058720    -0.78300
O83         O  0.75408508  0.66066202  0.61697692    -0.78500
C84         C  0.71766006  0.65751724  0.61335250     1.02100
Cr85       Cr  0.70735701  0.66415480  0.66840331     1.93700
Cr86       Cr  0.80004536  0.69830335  0.68731560     1.93200
Cr87       Cr  0.76341012  0.63103862  0.64548863     1.39100
O88         O  0.75690431  0.66440472  0.66713766    -1.23500
O89         O  0.64720094  0.58521048  0.01265511    -0.85800
O90         O  0.62628204  0.60308237  0.96634437    -0.82800
C91         C  0.60234051  0.59903807  0.94789798     0.97700
O92         O  0.56333132  0.58863315  0.95141141    -0.82900
O93         O  0.52607577  0.50131783  0.96581469    -0.85500
C94         C  0.51472710  0.46878553  0.98012314     1.02200
O95         O  0.51099451  0.47235231  0.00327337    -0.78300
O96         O  0.59914015  0.51516032  0.01235429    -0.78500
C97         C  0.63814452  0.54605985  0.01052535     1.02100
O98         O  0.60538471  0.62724457  0.03601109    -0.85800
O99         O  0.58769216  0.64899248  0.98976692    -0.82900
C100        C  0.54901596  0.64152698  0.99161125     0.97700
O101        O  0.51714084  0.60293261  0.99005170    -0.82900
O102        O  0.47160051  0.51485101  0.99986633    -0.85500
C103        C  0.46811336  0.51778235  0.02311915     1.02200
O104        O  0.50034564  0.52802604  0.03740520    -0.78300
O105        O  0.58769758  0.56325625  0.05126713    -0.78500
C106        C  0.60091550  0.60309708  0.05450123     1.02100
Cr107      Cr  0.61275600  0.61240177  0.00118494     1.93700
Cr108      Cr  0.52249693  0.55266501  0.97835422     1.93200
Cr109      Cr  0.55048293  0.52278908  0.02454402     1.39100
O110        O  0.56212742  0.56302714  0.00145820    -1.23500
O111        O  0.60063153  0.67537999  0.32246742    -0.85800
O112        O  0.67709071  0.71106579  0.29638984    -0.82800
C113        C  0.67077134  0.73219296  0.27925551     0.97700
O114        O  0.67036581  0.76643117  0.28447455    -0.82900
O115        O  0.65829660  0.82602525  0.31118915    -0.85500
C116        C  0.61732374  0.80733148  0.31450142     1.02200
O117        O  0.59825923  0.77279142  0.32704263    -0.78300
O118        O  0.57888752  0.69974215  0.35337528    -0.78500
C119        C  0.57024957  0.67260473  0.33577161     1.02100
O120        O  0.64647511  0.69138560  0.36973038    -0.85800
O121        O  0.72330606  0.73427703  0.34372504    -0.82900
C122        C  0.75416107  0.76363820  0.33116837     0.97700
O123        O  0.74630700  0.78489750  0.31474436    -0.82900
O124        O  0.72864044  0.83621731  0.34363584    -0.85500
C125        C  0.71027958  0.85111979  0.35685890     1.02200
O126        O  0.66931119  0.82868246  0.36029159    -0.78300
O127        O  0.65524752  0.75278027  0.38429053    -0.78500
C128        C  0.65293284  0.71664695  0.38799958     1.02100
Cr129      Cr  0.66195176  0.70658056  0.33316803     1.93700
Cr130      Cr  0.69827801  0.80017275  0.31475599     1.93200
Cr131      Cr  0.62805668  0.76304933  0.35494079     1.39100
O132        O  0.66279635  0.75654749  0.33430283    -1.23500
O133        O  0.99423410  0.26358936  0.65569984    -0.85800
O134        O  0.95809844  0.30508590  0.63064074    -0.82800
C135        C  0.93803237  0.27937841  0.61271278     0.97700
O136        O  0.90443203  0.24308702  0.61690683    -0.82900
O137        O  0.84445179  0.16767796  0.64231520    -0.85500
C138        C  0.86344424  0.14576200  0.64558076     1.02200
O139        O  0.89784501  0.16159356  0.65812256    -0.78300
O140        O  0.96920774  0.21468412  0.68568891    -0.78500
C141        C  0.99724557  0.23553051  0.66867022     1.02100
O142        O  0.97498907  0.28821680  0.70329763    -0.85800
O143        O  0.93170723  0.32204611  0.67838713    -0.82900
C144        C  0.90307813  0.32413472  0.66557688     0.97700
O145        O  0.88355087  0.29666535  0.64820005    -0.82900
O146        O  0.83200826  0.22481343  0.67568976    -0.85500
C147        C  0.81657285  0.19012636  0.68800100     1.02200
O148        O  0.83925987  0.17195245  0.69130915    -0.78300
O149        O  0.91359635  0.23329620  0.71687023    -0.78500
C150        C  0.94889737  0.26796675  0.72108571     1.02100
Cr151      Cr  0.96131808  0.29121485  0.66696752     1.93700
Cr152      Cr  0.86920893  0.23349955  0.64701456     1.93200
Cr153      Cr  0.90540935  0.19844344  0.68677571     1.39100
O154        O  0.91208406  0.24106060  0.66687066    -1.23500
O155        O  0.93803152  0.34656583  0.98810091    -0.85800
O156        O  0.01370089  0.38620910  0.96139622    -0.82800
C157        C  0.00413295  0.40366294  0.94357168     0.97700
O158        O  0.99861143  0.43529493  0.94781417    -0.82900
O159        O  0.98154860  0.49309491  0.97310691    -0.85500
C160        C  0.94080292  0.47169045  0.97737772     1.02200
O161        O  0.92517557  0.43866246  0.99118660    -0.78300
O162        O  0.91345509  0.36959294  0.01836923    -0.78500
C163        C  0.90689182  0.34199195  0.00135563     1.02100
O164        O  0.98480662  0.36907251  0.03479258    -0.85800
O165        O  0.05999016  0.41688617  0.00820725    -0.82900
C166        C  0.08874361  0.44590938  0.99447749     0.97700
O167        O  0.07779497  0.46301206  0.97700907    -0.82900
O168        O  0.05598428  0.51253675  0.00443176    -0.85500
C169        C  0.03657521  0.52513439  0.01849015     1.02200
O170        O  0.99607801  0.50066426  0.02275581    -0.78300
O171        O  0.98950456  0.42925719  0.04820771    -0.78500
C172        C  0.99004360  0.39471743  0.05258183     1.02100
Cr173      Cr  0.99888618  0.38297393  0.99811006     1.93700
Cr174      Cr  0.02606030  0.47287360  0.97691841     1.93200
Cr175      Cr  0.95873592  0.43433699  0.01881257     1.39100
O176        O  0.99445625  0.43003996  0.99792987    -1.23500
O177        O  0.00085067  0.27346099  0.34365153    -0.85800
O178        O  0.03712924  0.34967606  0.36989062    -0.82800
C179        C  0.05720687  0.34290235  0.38745893     0.97700
O180        O  0.08996510  0.33955639  0.38264271    -0.82900
O181        O  0.15071503  0.32753603  0.35633942    -0.85500
C182        C  0.13189478  0.28663744  0.35248118     1.02200
O183        O  0.09743799  0.26842747  0.34004707    -0.78300
O184        O  0.02593429  0.25091666  0.31344096    -0.78500
C185        C  0.99825341  0.24281740  0.33071136     1.02100
O186        O  0.01951774  0.31975062  0.29641704    -0.85800
O187        O  0.06337961  0.39619483  0.32271315    -0.82900
C188        C  0.09138771  0.42608820  0.33629157     0.97700
O189        O  0.11087470  0.41694887  0.35321668    -0.82900
O190        O  0.16266585  0.39966358  0.32476632    -0.85500
C191        C  0.17782501  0.38197255  0.31121985     1.02200
O192        O  0.15557497  0.34098783  0.30737321    -0.78300
O193        O  0.08090324  0.32743328  0.28276282    -0.78500
C194        C  0.04515062  0.32536006  0.27847213     1.02100
Cr195      Cr  0.03362086  0.33471825  0.33311241     1.93700
Cr196      Cr  0.12546245  0.36830276  0.35299482     1.93200
Cr197      Cr  0.08953217  0.29951650  0.31220119     1.39100
O198        O  0.08276916  0.33411393  0.33274843    -1.23500
C199        C  0.99472471  0.38340898  0.07872144    -0.03800
C200        C  0.00507296  0.41389594  0.09799697    -0.09600
C201        C  0.00759147  0.40279302  0.12283340    -0.17200
C202        C  0.99966674  0.36106107  0.12884500     0.24900
C203        C  0.98991563  0.33065447  0.10977892    -0.18900
C204        C  0.98753494  0.34175055  0.08486833    -0.07800
C205        C  0.00191962  0.34980384  0.15456367    -0.14200
C206        C  0.00553109  0.34220134  0.17620899    -0.14000
C207        C  0.01348768  0.33555928  0.20188824     0.24800
C208        C  0.98609948  0.33401507  0.22112655    -0.19400
C209        C  0.99583351  0.33018003  0.24614663    -0.07900
C210        C  0.03324784  0.32811519  0.25216523    -0.03900
C211        C  0.05998298  0.32887543  0.23260357    -0.09200
C212        C  0.05014303  0.33253355  0.20773639    -0.16900
H213        H  0.01099824  0.44630317  0.09391311     0.11300
H214        H  0.01546803  0.42671812  0.13738097     0.10500
H215        H  0.98392044  0.29830964  0.11417395     0.10500
H216        H  0.97944052  0.31753668  0.07048903     0.11000
H217        H  0.95761248  0.33636615  0.21682262     0.11100
H218        H  0.97452175  0.32948191  0.26074640     0.11000
H219        H  0.08882978  0.32696363  0.23649089     0.11200
H220        H  0.07157376  0.33365440  0.19306150     0.10000
C221        C  0.96007702  0.28442989  0.74697478    -0.03800
C222        C  0.99469355  0.32676020  0.75173690    -0.09600
C223        C  0.00410691  0.34261717  0.77621215    -0.17200
C224        C  0.97924641  0.31626559  0.79618943     0.24900
C225        C  0.94513610  0.27395174  0.79163413    -0.18900
C226        C  0.93552264  0.25813280  0.76721264    -0.07800
C227        C  0.98773578  0.33279564  0.82132111    -0.14200
C228        C  0.99272230  0.34572428  0.84254013    -0.14000
C229        C  0.99646333  0.36059874  0.86788109     0.24800
C230        C  0.00487491  0.33940694  0.88738582    -0.19400
C231        C  0.00727763  0.35322770  0.91208540    -0.07900
C232        C  0.00119985  0.38841828  0.91754864    -0.03900
C233        C  0.99283103  0.40951442  0.89777089    -0.09200
C234        C  0.99050432  0.39568734  0.87313709    -0.16900
H235        H  0.01404276  0.34782802  0.73653159     0.11300
H236        H  0.03048955  0.37549590  0.77952623     0.10500
H237        H  0.92566638  0.25329702  0.80695390     0.10500
H238        H  0.90877403  0.22535789  0.76417788     0.11000
H239        H  0.00938852  0.31209129  0.88351832     0.11100
H240        H  0.01381904  0.33636823  0.92687004     0.11000
H241        H  0.98808867  0.43677417  0.90130368     0.11200
H242        H  0.98384713  0.41224230  0.85820199     0.10000
C243        C  0.95295866  0.29243100  0.58665417    -0.03800
C244        C  0.99312386  0.33007991  0.58149959    -0.09600
C245        C  0.00701938  0.34202563  0.55678034    -0.17200
C246        C  0.98082335  0.31665124  0.53697022     0.24900
C247        C  0.94072526  0.27935781  0.54194113    -0.18900
C248        C  0.92687372  0.26725728  0.56658437    -0.07800
C249        C  0.99543816  0.32773587  0.51152955    -0.14200
C250        C  0.00683705  0.33404871  0.48997500    -0.14000
C251        C  0.02016955  0.33806465  0.46427567     0.24800
C252        C  0.05492955  0.33221450  0.45802253    -0.19400
C253        C  0.06675941  0.33367274  0.43303835    -0.07900
C254        C  0.04392311  0.34096826  0.41386075    -0.03900
C255        C  0.00924686  0.34726637  0.42031744    -0.09200
C256        C  0.99743843  0.34577342  0.44540739    -0.16900
H257        H  0.01394119  0.35006514  0.59655157     0.11300
H258        H  0.03824529  0.37083822  0.55313225     0.10500
H259        H  0.92026537  0.25941054  0.52675003     0.10500
H260        H  0.89570440  0.23820796  0.56990358     0.11000
H261        H  0.07264369  0.32607634  0.47245648     0.11100
H262        H  0.09375046  0.32890058  0.42875950     0.11000
H263        H  0.99123462  0.35322493  0.40601819     0.11200
H264        H  0.97036138  0.35021504  0.45006158     0.10000
C265        C  0.22365871  0.41020840  0.30313560    -0.03800
C266        C  0.23937501  0.45511060  0.29999237    -0.09600
C267        C  0.28392283  0.48535144  0.30087481    -0.17200
C268        C  0.31387132  0.47147099  0.30478781     0.24900
C269        C  0.29884818  0.42655226  0.30598719    -0.18900
C270        C  0.25393418  0.39601512  0.30508493    -0.07800
C271        C  0.35912744  0.50372308  0.30953733    -0.14200
C272        C  0.39580818  0.53259498  0.31439883    -0.14000
C273        C  0.43943639  0.56788338  0.32006865     0.24800
C274        C  0.47435164  0.57480298  0.30497068    -0.19400
C275        C  0.51653209  0.60874513  0.31018930    -0.07900
C276        C  0.52487390  0.63670428  0.33067403    -0.03900
C277        C  0.48958526  0.62978965  0.34572220    -0.09200
C278        C  0.44723161  0.59561539  0.34045884    -0.16900
H279        H  0.21689494  0.46713316  0.29867294     0.11300
H280        H  0.29482064  0.51979996  0.29982322     0.10500
H281        H  0.32161001  0.41523108  0.30895394     0.10500
H282        H  0.24287048  0.36183069  0.30801888     0.11000
H283        H  0.46900268  0.55390993  0.28909547     0.11100
H284        H  0.54270003  0.61308539  0.29805507     0.11000
H285        H  0.49470967  0.65066922  0.36155383     0.11200
H286        H  0.42056556  0.59084390  0.35230163     0.10000
C287        C  0.73732712  0.89700925  0.36490168    -0.03800
C288        C  0.78181975  0.91334468  0.36964204    -0.09600
C289        C  0.81149079  0.95810213  0.36898052    -0.17200
C290        C  0.79734768  0.98745326  0.36350497     0.24900
C291        C  0.75261600  0.97175757  0.36059840    -0.18900
C292        C  0.72267014  0.92671736  0.36143692    -0.07800
C293        C  0.82934814  0.03271285  0.35866472    -0.14200
C294        C  0.85806927  0.06934049  0.35357888    -0.14000
C295        C  0.89321435  0.11274635  0.34745088     0.24800
C296        C  0.89828031  0.14850859  0.36097763    -0.19400
C297        C  0.93223010  0.19049806  0.35533608    -0.07900
C298        C  0.96198742  0.19773124  0.33598034    -0.03900
C299        C  0.95680373  0.16161148  0.32246479    -0.09200
C300        C  0.92264595  0.11943975  0.32817188    -0.16900
H301        H  0.79410119  0.89122226  0.37209820     0.11300
H302        H  0.84584862  0.96961596  0.37132888     0.10500
H303        H  0.74114009  0.99406807  0.35634637     0.10500
H304        H  0.68878151  0.91507332  0.35725228     0.11000
H305        H  0.87598934  0.14396314  0.37597338     0.11100
H306        H  0.93518919  0.21736495  0.36627782     0.11000
H307        H  0.97915426  0.16591443  0.30757645     0.11200
H308        H  0.91925120  0.09204988  0.31757784     0.10000
C309        C  0.61185685  0.62064317  0.08025635    -0.03800
C310        C  0.60087008  0.59170421  0.10066503    -0.09600
C311        C  0.61122387  0.60730823  0.12507500    -0.17200
C312        C  0.63286522  0.65206679  0.12958479     0.24900
C313        C  0.64416553  0.68128374  0.10945436    -0.18900
C314        C  0.63365344  0.66567677  0.08489819    -0.07800
C315        C  0.64246880  0.66751037  0.15496942    -0.14200
C316        C  0.64869796  0.67875519  0.17656235    -0.14000
C317        C  0.65451974  0.69194982  0.20238311     0.24800
C318        C  0.64920599  0.72671117  0.20950875    -0.19400
C319        C  0.65442863  0.73959656  0.23449935    -0.07900
C320        C  0.66497499  0.71781420  0.25284389    -0.03900
C321        C  0.67002862  0.68269544  0.24556470    -0.09200
C322        C  0.66487090  0.66990035  0.22046288    -0.16900
H323        H  0.58402067  0.55682561  0.09781239     0.11300
H324        H  0.60218555  0.58437422  0.14046666     0.10500
H325        H  0.66092315  0.71604968  0.11274236     0.10500
H326        H  0.64273256  0.68874438  0.06959780     0.11000
H327        H  0.64099152  0.74388374  0.19573307     0.11100
H328        H  0.65009988  0.76663914  0.23944467     0.11000
H329        H  0.67813372  0.66528682  0.25921192     0.11200
H330        H  0.66891997  0.64281681  0.21516797     0.10000
C331        C  0.67404242  0.53746695  0.00522245    -0.03800
C332        C  0.66557305  0.49715294  0.99565466    -0.09600
C333        C  0.69993275  0.49129928  0.98801596    -0.17200
C334        C  0.74314913  0.52553540  0.98992719     0.24900
C335        C  0.75178006  0.56531250  0.00000166    -0.18900
C336        C  0.71760721  0.57128520  0.00752022    -0.07800
C337        C  0.77878108  0.52012405  0.98168810    -0.14200
C338        C  0.80896298  0.51554130  0.97570286    -0.14000
C339        C  0.84401229  0.50730148  0.97053416     0.24800
C340        C  0.88764593  0.53993784  0.97391144    -0.19400
C341        C  0.92084365  0.52958570  0.97312157    -0.07900
C342        C  0.91053551  0.48637863  0.96921337    -0.03900
C343        C  0.86708356  0.45464209  0.96402428    -0.09200
C344        C  0.83415363  0.46503688  0.96464437    -0.16900
H345        H  0.63244414  0.47064382  0.99339238     0.11300
H346        H  0.69274934  0.46025396  0.98033227     0.10500
H347        H  0.78497064  0.59197761  0.00175527     0.10500
H348        H  0.72533645  0.60275600  0.01477324     0.11000
H349        H  0.89574812  0.57277972  0.97857922     0.11100
H350        H  0.95381371  0.55438978  0.97776207     0.11000
H351        H  0.85817019  0.42097705  0.96129661     0.11200
H352        H  0.80066732  0.43945105  0.96201539     0.10000
C353        C  0.13476797  0.45831370  0.99910026    -0.03800
C354        C  0.14545088  0.44507591  0.02161697    -0.09600
C355        C  0.18785560  0.45453955  0.02640707    -0.17200
C356        C  0.22067701  0.47741910  0.00885678     0.24900
C357        C  0.21072608  0.49126506  0.98638866    -0.18900
C358        C  0.16798074  0.48192298  0.98155801    -0.07800
C359        C  0.26411658  0.48594052  0.01428860    -0.14200
C360        C  0.29926044  0.49115116  0.02024327    -0.14000
C361        C  0.34111738  0.49649562  0.02688162     0.24800
C362        C  0.34751380  0.46076233  0.02611232    -0.19400
C363        C  0.38944386  0.46698880  0.02854190    -0.07900
C364        C  0.42543666  0.50895306  0.03202844    -0.03900
C365        C  0.41839638  0.54413928  0.03476801    -0.09200
C366        C  0.37645098  0.53795619  0.03216530    -0.16900
H367        H  0.12087862  0.42716152  0.03566872     0.11300
H368        H  0.19498890  0.44372553  0.04384886     0.10500
H369        H  0.23586716  0.50902944  0.97260014     0.10500
H370        H  0.16080071  0.49248734  0.96405785     0.11000
H371        H  0.32055342  0.42850300  0.02205108     0.11100
H372        H  0.39429223  0.43965782  0.02550843     0.11000
H373        H  0.44578843  0.57695874  0.03652875     0.11200
H374        H  0.37203470  0.56590590  0.03277180     0.10000
C375        C  0.61909338  0.60712651  0.92187195    -0.03800
C376        C  0.66280961  0.62092340  0.91648781    -0.09600
C377        C  0.67771179  0.62907075  0.89168145    -0.17200
C378        C  0.64909447  0.62342698  0.87203253     0.24900
C379        C  0.60552812  0.60916337  0.87726255    -0.18900
C380        C  0.59063824  0.60107900  0.90189830    -0.07800
C381        C  0.66406685  0.63262712  0.84647868    -0.14200
C382        C  0.67531129  0.64015159  0.82486414    -0.14000
C383        C  0.68929154  0.64890353  0.79912202     0.24800
C384        C  0.73234641  0.66189224  0.79312704    -0.19400
C385        C  0.74597985  0.66911560  0.76821300    -0.07900
C386        C  0.71683121  0.66380214  0.74883909    -0.03900
C387        C  0.67375758  0.65150858  0.75499898    -0.09200
C388        C  0.66003916  0.64390001  0.78000656    -0.16900
H389        H  0.68545241  0.62569377  0.93139891     0.11300
H390        H  0.71153916  0.64000321  0.88784708     0.10500
H391        H  0.58302355  0.60453115  0.86227430     0.10500
H392        H  0.55670816  0.59024811  0.90527091     0.11000
H393        H  0.75532596  0.66603804  0.80770901     0.11100
H394        H  0.77944545  0.67885721  0.76410842     0.11000
H395        H  0.65056358  0.64697533  0.74048387     0.11200
H396        H  0.62657788  0.63381417  0.78440535     0.10000
C397        C  0.77499548  0.80108719  0.66712958    -0.03800
C398        C  0.79711485  0.83436658  0.68478111    -0.09600
C399        C  0.80417848  0.87644781  0.68019231    -0.17200
C400        C  0.78956293  0.88583026  0.65784152     0.24900
C401        C  0.76831286  0.85302245  0.64008168    -0.18900
C402        C  0.76100039  0.81112903  0.64467341    -0.07800
C403        C  0.79656386  0.92898229  0.65274605    -0.14200
C404        C  0.80327311  0.96511455  0.64765671    -0.14000
C405        C  0.81526834  0.00970724  0.64198911     0.24800
C406        C  0.78590496  0.02463776  0.64543895    -0.19400
C407        C  0.80019503  0.06934408  0.64342932    -0.07900
C408        C  0.84411107  0.09950469  0.63830261    -0.03900
C409        C  0.87231229  0.08371006  0.63297171    -0.09200
C410        C  0.85800604  0.03927484  0.63477117    -0.16900
H411        H  0.80831269  0.82771408  0.70221075     0.11300
H412        H  0.82090470  0.90158459  0.69408053     0.10500
H413        H  0.75717515  0.85976203  0.62264353     0.10500
H414        H  0.74432717  0.78648956  0.63052008     0.11000
H415        H  0.75264717  0.00212544  0.65094858     0.11100
H416        H  0.77794364  0.08058951  0.64797407     0.11000
H417        H  0.90640832  0.10620382  0.62922887     0.11200
H418        H  0.88105121  0.02832081  0.63190887     0.10000
C419        C  0.82447395  0.58884981  0.69279016    -0.03800
C420        C  0.79557093  0.54427032  0.69734439    -0.09600
C421        C  0.81013143  0.51443458  0.69736006    -0.17200
C422        C  0.85385715  0.52839307  0.69272066     0.24900
C423        C  0.88352039  0.57313774  0.68954893    -0.18900
C424        C  0.86893068  0.60329054  0.68969091    -0.07800
C425        C  0.86674827  0.49604380  0.68935704    -0.14200
C426        C  0.87365687  0.46648621  0.68561131    -0.14000
C427        C  0.88000750  0.42999527  0.68073264     0.24800
C428        C  0.90451805  0.42027802  0.69727630    -0.19400
C429        C  0.91142058  0.38561146  0.69238620    -0.07900
C430        C  0.89385186  0.35978959  0.67083613    -0.03900
C431        C  0.86841053  0.36909448  0.65457082    -0.09200
C432        C  0.86167325  0.40401168  0.65946705    -0.16900
H433        H  0.76107553  0.53211817  0.69947915     0.11300
H434        H  0.78677594  0.48008629  0.69982955     0.10500
H435        H  0.91747163  0.58447585  0.68585289     0.10500
H436        H  0.89172446  0.63722341  0.68554339     0.11000
H437        H  0.91860307  0.43970578  0.71389896     0.11100
H438        H  0.93078008  0.37916329  0.70550514     0.11000
H439        H  0.85428736  0.34984136  0.63791258     0.11200
H440        H  0.84237381  0.41091815  0.64655578     0.10000
C441        C  0.70433997  0.66030814  0.58736541    -0.03800
C442        C  0.66060510  0.64549257  0.58116924    -0.09600
C443        C  0.64841059  0.64592916  0.55619966    -0.17200
C444        C  0.67981856  0.66137507  0.53719254     0.24900
C445        C  0.72336921  0.67668894  0.54332810    -0.18900
C446        C  0.73554225  0.67609554  0.56812791    -0.07800
C447        C  0.66829208  0.66292134  0.51141389    -0.14200
C448        C  0.66273984  0.66797016  0.48960591    -0.14000
C449        C  0.65988800  0.67927260  0.46394017     0.24800
C450        C  0.64984988  0.64931044  0.44453134    -0.19400
C451        C  0.64801328  0.66136967  0.41969388    -0.07900
C452        C  0.65613937  0.70354632  0.41400761    -0.03900
C453        C  0.66652745  0.73336482  0.43366539    -0.09200
C454        C  0.66840843  0.72131275  0.45834368    -0.16900
H455        H  0.63578894  0.63290813  0.59552718     0.11300
H456        H  0.61459306  0.63418435  0.55173235     0.10500
H457        H  0.74804933  0.68906323  0.52887712     0.10500
H458        H  0.76948228  0.68788683  0.57222460     0.11000
H459        H  0.64345461  0.61672219  0.44857781     0.11100
H460        H  0.63990630  0.63764793  0.40501137     0.11000
H461        H  0.67315859  0.76613227  0.43001030     0.11200
H462        H  0.67655151  0.74492041  0.47311878     0.10000
C463        C  0.59099568  0.82706202  0.30693917    -0.03800
C464        C  0.60460395  0.87044230  0.31315498    -0.09600
C465        C  0.57420645  0.88455493  0.31439890    -0.17200
C466        C  0.53008065  0.85560434  0.30914088     0.24900
C467        C  0.51726211  0.81355006  0.30088871    -0.18900
C468        C  0.54737974  0.79935989  0.29987823    -0.07800
C469        C  0.49721585  0.86720243  0.31420759    -0.14200
C470        C  0.46822484  0.87443731  0.31905983    -0.14000
C471        C  0.43317689  0.88287563  0.32422123     0.24800
C472        C  0.43096108  0.91575208  0.31102932    -0.19400
C473        C  0.39684767  0.92366397  0.31527191    -0.07900
C474        C  0.36401850  0.89887796  0.33290314    -0.03900
C475        C  0.36658787  0.86607849  0.34633905    -0.09200
C476        C  0.40089616  0.85810121  0.34198363    -0.16900
H477        H  0.63774622  0.89218295  0.31915940     0.11300
H478        H  0.58469758  0.91724377  0.32077051     0.10500
H479        H  0.48342155  0.79081965  0.29663717     0.10500
H480        H  0.53592437  0.76564244  0.29529286     0.11000
H481        H  0.45553823  0.93520637  0.29725721     0.11100
H482        H  0.39616205  0.94924793  0.30457082     0.11000
H483        H  0.34190931  0.84633747  0.35997438     0.11200
H484        H  0.40208335  0.83246118  0.35234417     0.16300
C485        C  0.10162500  0.85045483  0.36049006    -0.03800
C486        C  0.07154942  0.80548107  0.35922764    -0.09600
C487        C  0.02647669  0.79010508  0.35868704    -0.17200
C488        C  0.01098261  0.81945663  0.35957871     0.24900
C489        C  0.04082457  0.86389123  0.36247002    -0.18900
C490        C  0.08553562  0.87920411  0.36290295    -0.07800
C491        C  0.96522752  0.80525000  0.35571861    -0.14200
C492        C  0.92820827  0.79682543  0.35148257    -0.14000
C493        C  0.88453675  0.78843598  0.34603978     0.24800
C494        C  0.84832857  0.75307148  0.35721093    -0.19400
C495        C  0.80623850  0.74506328  0.35217311    -0.07900
C496        C  0.79927376  0.77218364  0.33574794    -0.03900
C497        C  0.83579799  0.80765130  0.32453583    -0.09200
C498        C  0.87801306  0.81570194  0.32968010    -0.16900
H499        H  0.08284571  0.78263081  0.35676817     0.11300
H500        H  0.00388658  0.75558094  0.35642128     0.10500
H501        H  0.02963059  0.88707688  0.36321855     0.10500
H502        H  0.10778794  0.91405163  0.36362467     0.11000
H503        H  0.85259753  0.73166865  0.36991532     0.11100
H504        H  0.77905136  0.71749846  0.36123875     0.11000
H505        H  0.83178892  0.82936646  0.31197292     0.11200
H506        H  0.90561305  0.84331745  0.32091709     0.10000
C507        C  0.15130755  0.25952676  0.35910041    -0.03800
C508        C  0.19434280  0.27286849  0.35225646    -0.09600
C509        C  0.20835395  0.24235755  0.35089029    -0.17200
C510        C  0.17967030  0.19824949  0.35657850     0.24900
C511        C  0.13761185  0.18542700  0.36483247    -0.18900
C512        C  0.12350929  0.21567775  0.36596432    -0.07800
C513        C  0.19191823  0.16554316  0.35231384    -0.14200
C514        C  0.20023584  0.13707024  0.34796566    -0.14000
C515        C  0.20971110  0.10274870  0.34246467     0.24800
C516        C  0.18209318  0.06780004  0.32695298    -0.19400
C517        C  0.19142185  0.03471131  0.32163997    -0.07900
C518        C  0.22849686  0.03593630  0.33186499    -0.03900
C519        C  0.25598885  0.07118355  0.34743686    -0.09200
C520        C  0.24673087  0.10422505  0.35261453    -0.16900
H521        H  0.21600429  0.30603073  0.34610335     0.11300
H522        H  0.24092378  0.25282818  0.34433416     0.10500
H523        H  0.11495693  0.15156717  0.36926024     0.10500
H524        H  0.08991544  0.20427396  0.37078378     0.11000
H525        H  0.15322990  0.06604344  0.31899493     0.11100
H526        H  0.16935060  0.00792113  0.30982813     0.11000
H527        H  0.28476381  0.07324274  0.35573300     0.11200
H528        H  0.26844351  0.13089062  0.36463169     0.10000
C529        C  0.10006096  0.47135518  0.33235930    -0.03800
C530        C  0.12832825  0.50591506  0.34801011    -0.09600
C531        C  0.13598670  0.54827600  0.34368893    -0.17200
C532        C  0.11559315  0.55673133  0.32366272     0.24900
C533        C  0.08743113  0.52248074  0.30809801    -0.18900
C534        C  0.07969926  0.48030806  0.31238237    -0.07800
C535        C  0.12399782  0.60046179  0.31863605    -0.14200
C536        C  0.13194583  0.63717771  0.31395869    -0.14000
C537        C  0.14496956  0.68231816  0.30904968     0.24800
C538        C  0.11583539  0.69761026  0.31224354    -0.19400
C539        C  0.13067373  0.74249920  0.31084590    -0.07900
C540        C  0.17489633  0.77249811  0.30645508    -0.03900
C541        C  0.20312216  0.75653011  0.30163434    -0.09200
C542        C  0.18828158  0.71191057  0.30286215    -0.16900
H543        H  0.14450141  0.50023869  0.36353283     0.11300
H544        H  0.15796475  0.57445108  0.35589424     0.10500
H545        H  0.07151202  0.52838375  0.29250856     0.10500
H546        H  0.05782470  0.45467507  0.29986557     0.11000
H547        H  0.08220025  0.67513283  0.31705727     0.11100
H548        H  0.10848066  0.75391797  0.31524595     0.11000
H549        H  0.23747454  0.77893424  0.29855666     0.11200
H550        H  0.21120911  0.70073847  0.30028002     0.10000
C551        C  0.38577011  0.00124644  0.07870536    -0.03800
C552        C  0.40383619  0.98858296  0.09818265    -0.09600
C553        C  0.38919356  0.98506524  0.12272163    -0.17200
C554        C  0.35629942  0.99415974  0.12827495     0.24900
C555        C  0.33777911  0.00648885  0.10904767    -0.18900
C556        C  0.35238218  0.00998564  0.08437195    -0.07800
C557        C  0.34159510  0.99024324  0.15372648    -0.14200
C558        C  0.33006775  0.98526269  0.17527718    -0.14000
C559        C  0.31567378  0.97683484  0.20090411     0.24800
C560        C  0.34301461  0.00274557  0.22024083    -0.19400
C561        C  0.32888619  0.99385071  0.24512061    -0.07900
C562        C  0.28732078  0.95872443  0.25092921    -0.03900
C563        C  0.26027272  0.93279972  0.23135163    -0.09200
C564        C  0.27433784  0.94188555  0.20655633    -0.16900
H565        H  0.42943994  0.98141448  0.09449626     0.11300
H566        H  0.40361597  0.97528888  0.13739623     0.10500
H567        H  0.31213885  0.01344775  0.11312363     0.10500
H568        H  0.33780239  0.01976232  0.06981111     0.11000
H569        H  0.37521230  0.02973054  0.21609726     0.11100
H570        H  0.35053202  0.01424361  0.25978983     0.11000
H571        H  0.22806843  0.90558968  0.23516613     0.11200
H572        H  0.25295990  0.92152013  0.19177604     0.10000
C573        C  0.06216397  0.57057326  0.02707094    -0.03800
C574        C  0.05025773  0.60106361  0.01956980    -0.09600
C575        C  0.08169244  0.64560476  0.01840983    -0.17200
C576        C  0.12507635  0.65992630  0.02495492     0.24900
C577        C  0.13607911  0.62998235  0.03439674    -0.18900
C578        C  0.10492315  0.58568003  0.03540109    -0.07800
C579        C  0.15931311  0.70405508  0.01974893    -0.14200
C580        C  0.19003348  0.73951891  0.01472461    -0.14000
C581        C  0.22777513  0.78142335  0.00909628     0.24800
C582        C  0.26228971  0.78440922  0.99494196    -0.19400
C583        C  0.29947568  0.82511000  0.99031248    -0.07900
C584        C  0.30269331  0.86332280  0.99994713    -0.03900
C585        C  0.26758796  0.85989328  0.01388991    -0.09200
C586        C  0.23051931  0.81937400  0.01835731    -0.16900
H587        H  0.01791220  0.59013905  0.01234571     0.11300
H588        H  0.07274023  0.66841428  0.01099274     0.10500
H589        H  0.16941730  0.64048757  0.03949146     0.10500
H590        H  0.11510288  0.56272257  0.04071556     0.11000
H591        H  0.26063347  0.75525730  0.98768556     0.11100
H592        H  0.32591234  0.82660630  0.97958481     0.11000
H593        H  0.26878064  0.88860943  0.02148842     0.11200
H594        H  0.20414609  0.81763940  0.02928991     0.10000
C595        C  0.57038818  0.06435898  0.96938259    -0.03800
C596        C  0.60180361  0.05358516  0.97656557    -0.09600
C597        C  0.64610181  0.08572865  0.97678162    -0.17200
C598        C  0.65926079  0.12867750  0.96959377     0.24900
C599        C  0.62834520  0.13846328  0.96039987    -0.18900
C600        C  0.58427274  0.10660718  0.96034878    -0.07800
C601        C  0.70316420  0.16374531  0.97416767    -0.14200
C602        C  0.73852441  0.19453064  0.97915077    -0.14000
C603        C  0.78058178  0.23148706  0.98528336     0.24800
C604        C  0.78420196  0.26445321  0.00115529    -0.19400
C605        C  0.82524262  0.30024966  0.00691577    -0.07900
C606        C  0.86313302  0.30354177  0.99674049    -0.03900
C607        C  0.85898930  0.27013194  0.98089285    -0.09200
C608        C  0.81816649  0.23449722  0.97527374    -0.16900
H609        H  0.59188758  0.02166629  0.98423818     0.11300
H610        H  0.66968686  0.07772709  0.98401599     0.10500
H611        H  0.63794944  0.17145239  0.95481312     0.10500
H612        H  0.56061467  0.11591477  0.95519168     0.11000
H613        H  0.75531259  0.26257164  0.00899825     0.11100
H614        H  0.82728665  0.32554815  0.01897273     0.11000
H615        H  0.88741165  0.27152677  0.97269074     0.11200
H616        H  0.81593880  0.20933560  0.96300722     0.10000
C617        C  0.45973020  0.13577043  0.99462173    -0.03800
C618        C  0.44669280  0.14633555  0.97198931    -0.09600
C619        C  0.45855769  0.18937075  0.96635600    -0.17200
C620        C  0.48364642  0.22277098  0.98318796     0.24900
C621        C  0.49757094  0.21282122  0.00557774    -0.18900
C622        C  0.48588175  0.16962544  0.01122058    -0.07800
C623        C  0.49286281  0.26659635  0.97791450    -0.14200
C624        C  0.49734600  0.30215455  0.97382205    -0.14000
C625        C  0.49924274  0.34354127  0.97077287     0.24800
C626        C  0.53656274  0.38020832  0.96127667    -0.19400
C627        C  0.53986612  0.42127873  0.96145437    -0.07900
C628        C  0.50596819  0.42596784  0.97129523    -0.03900
C629        C  0.46782567  0.38869126  0.97950478    -0.09200
C630        C  0.46440178  0.34780243  0.97911808    -0.16900
H631        H  0.42698020  0.12122441  0.95861656     0.11300
H632        H  0.44752371  0.19647962  0.94899593     0.10500
H633        H  0.51691651  0.23832945  0.01883169     0.10500
H634        H  0.49660800  0.16263460  0.02871385     0.11000
H635        H  0.56388699  0.37746252  0.95488677     0.11100
H636        H  0.57014265  0.44974211  0.95586763     0.11000
H637        H  0.44177360  0.39172243  0.98778657     0.11200
H638        H  0.43541472  0.31986805  0.98656212     0.10000
C639        C  0.54194919  0.67875319  0.99615889    -0.03800
C640        C  0.50071671  0.67185618  0.00278261    -0.09600
C641        C  0.49550863  0.70702720  0.00952777    -0.17200
C642        C  0.53133160  0.74958153  0.00967856     0.24900
C643        C  0.57217090  0.75679134  0.00247083    -0.18900
C644        C  0.57747861  0.72177067  0.99581904    -0.07800
C645        C  0.52645972  0.78584903  0.01736542    -0.14200
C646        C  0.52205794  0.81620495  0.02327330    -0.14000
C647        C  0.51398698  0.85134318  0.02863787     0.24800
C648        C  0.54496200  0.89461647  0.02262253    -0.19400
C649        C  0.53388295  0.92728190  0.02354269    -0.07900
C650        C  0.49151497  0.91675541  0.03014087    -0.03900
C651        C  0.46184204  0.87402893  0.03803036    -0.09200
C652        C  0.47305592  0.84162623  0.03737425    -0.16900
H653        H  0.47274252  0.63924387  0.00334920     0.11300
H654        H  0.46363421  0.70093601  0.01495455     0.10500
H655        H  0.60012022  0.78947510  0.00233826     0.10500
H656        H  0.60969729  0.72838518  0.99082906     0.11000
H657        H  0.57674009  0.90262338  0.01577067     0.11100
H658        H  0.55697688  0.95966813  0.01683049     0.11000
H659        H  0.42880412  0.86498831  0.04284554     0.11200
H660        H  0.44878147  0.80841231  0.04211587     0.10000
C661        C  0.33306257  0.03372424  0.74524464    -0.03800
C662        C  0.32600321  0.99188450  0.75070106    -0.09600
C663        C  0.32954089  0.98026988  0.77534226    -0.17200
C664        C  0.34022372  0.01035093  0.79472761     0.24900
C665        C  0.34743029  0.05199330  0.78939610    -0.18900
C666        C  0.34387065  0.06361361  0.76490669    -0.07800
C667        C  0.34481156  0.99938061  0.82009815    -0.14200
C668        C  0.35083344  0.99374288  0.84167410    -0.14000
C669        C  0.36091046  0.99041230  0.86742364     0.24800
C670        C  0.39952761  0.99110900  0.87337990    -0.19400
C671        C  0.41062181  0.98991794  0.89834842    -0.07900
C672        C  0.38321736  0.98806147  0.91779315    -0.03900
C673        C  0.34427813  0.98708926  0.91163788    -0.09200
C674        C  0.33325862  0.98832492  0.88659720    -0.16900
H675        H  0.31754259  0.96813663  0.73599579     0.11300
H676        H  0.32402314  0.94795167  0.77925780     0.10500
H677        H  0.35590269  0.07560493  0.80420505     0.10500
H678        H  0.34961601  0.09611593  0.76139829     0.11000
H679        H  0.42127391  0.99292606  0.85871326     0.11100
H680        H  0.44074352  0.99053800  0.90240454     0.11000
H681        H  0.32241168  0.98549119  0.92614718     0.11200
H682        H  0.30336263  0.98797879  0.88220671     0.10000
C683        C  0.76993125  0.16949746  0.69469406    -0.03800
C684        C  0.74072413  0.12598508  0.68817979    -0.09600
C685        C  0.69612026  0.11127101  0.68528154    -0.17200
C686        C  0.68022316  0.13974644  0.68920998     0.24900
C687        C  0.70869568  0.18193461  0.69776532    -0.18900
C688        C  0.75308215  0.19668949  0.70044860    -0.07800
C689        C  0.63577688  0.12736219  0.68287604    -0.14200
C690        C  0.59954631  0.11998102  0.67750137    -0.14000
C691        C  0.55618889  0.11242770  0.67245682     0.24800
C692        C  0.52231823  0.08667457  0.68894173    -0.19400
C693        C  0.48077278  0.08066379  0.68510936    -0.07900
C694        C  0.47205548  0.10046578  0.66471372    -0.03900
C695        C  0.50610406  0.12598293  0.64798432    -0.09200
C696        C  0.54785928  0.13184076  0.65182687    -0.16900
H697        H  0.75280656  0.10457852  0.68321029     0.11300
H698        H  0.67450762  0.07845760  0.67874192     0.10500
H699        H  0.69702207  0.20431504  0.70102569     0.10500
H700        H  0.77485467  0.23053117  0.70517944     0.11000
H701        H  0.52811364  0.07152857  0.70498818     0.11100
H702        H  0.45548888  0.06077547  0.69841234     0.11000
H703        H  0.50049132  0.14139071  0.63202166     0.11200
H704        H  0.57372935  0.15188655  0.63886353     0.10000
C705        C  0.26143607  0.15569875  0.64124181    -0.03800
C706        C  0.27723409  0.20071497  0.64301533    -0.09600
C707        C  0.24806533  0.21656052  0.64364145    -0.17200
C708        C  0.20288361  0.18762134  0.64234288     0.24900
C709        C  0.18742795  0.14320290  0.63906556    -0.18900
C710        C  0.21627040  0.12743852  0.63850901    -0.07800
C711        C  0.17170724  0.20208450  0.64600250    -0.14200
C712        C  0.14272976  0.20986871  0.64990284    -0.14000
C713        C  0.10632815  0.21647921  0.65484639     0.24800
C714        C  0.07804752  0.19510820  0.67494779    -0.19400
C715        C  0.04246537  0.20095040  0.67950981    -0.07900
C716        C  0.03457168  0.22841715  0.66406156    -0.03900
C717        C  0.06311888  0.24961667  0.64386642    -0.09200
C718        C  0.09851512  0.24365836  0.63931959    -0.16900
H719        H  0.31166194  0.22319197  0.64566543     0.11300
H720        H  0.26064859  0.25107624  0.64620082     0.10500
H721        H  0.15277149  0.12034442  0.63799948     0.10500
H722        H  0.20295815  0.09257447  0.63731609     0.11000
H723        H  0.08344732  0.17381122  0.68710178     0.11100
H724        H  0.02126234  0.18410821  0.69516819     0.11000
H725        H  0.05808238  0.27085589  0.63145814     0.11200
H726        H  0.11977253  0.26026587  0.62362482     0.10000
C727        C  0.89769422  0.74047104  0.63692974    -0.03800
C728        C  0.91374050  0.78504017  0.63229010    -0.09600
C729        C  0.95843427  0.81496751  0.63274971    -0.17200
C730        C  0.98801244  0.80102633  0.63797741     0.24900
C731        C  0.97254448  0.75626554  0.64093824    -0.18900
C732        C  0.92759840  0.72608220  0.64029481    -0.07800
C733        C  0.03335363  0.83316572  0.64240744    -0.14200
C734        C  0.07019844  0.86173827  0.64711433    -0.14000
C735        C  0.11388836  0.89672589  0.65279418     0.24800
C736        C  0.14887958  0.90281824  0.63804855    -0.19400
C737        C  0.19105215  0.93679507  0.64319096    -0.07900
C738        C  0.19925330  0.96555343  0.66323925    -0.03900
C739        C  0.16393623  0.95925083  0.67802679    -0.09200
C740        C  0.12160233  0.92508233  0.67282626    -0.16900
H741        H  0.89145017  0.79712690  0.62999570     0.11300
H742        H  0.96973553  0.84934094  0.63038604     0.10500
H743        H  0.99498942  0.74493297  0.64504216     0.10500
H744        H  0.91617351  0.69217262  0.64453643     0.11000
H745        H  0.14357409  0.88135535  0.62247886     0.11100
H746        H  0.21729971  0.94058822  0.63130548     0.11000
H747        H  0.16898902  0.98074014  0.69351925     0.11200
H748        H  0.09485184  0.92087925  0.68439816     0.10000
C749        C  0.41062123  0.22677565  0.69676562    -0.03800
C750        C  0.45510457  0.24325568  0.70160960    -0.09600
C751        C  0.48472559  0.28802816  0.70073333    -0.17200
C752        C  0.47053148  0.31722613  0.69489500     0.24900
C753        C  0.42581140  0.30139545  0.69182644    -0.18900
C754        C  0.39592506  0.25636097  0.69287684    -0.07800
C755        C  0.50247267  0.36245697  0.68991650    -0.14200
C756        C  0.53123534  0.39911302  0.68492407    -0.14000
C757        C  0.56674789  0.44260281  0.67934982     0.24800
C758        C  0.57771202  0.47617250  0.69642929    -0.19400
C759        C  0.61215425  0.51817380  0.69143588    -0.07900
C760        C  0.63660666  0.52759733  0.66922733    -0.03900
C761        C  0.62568543  0.49366023  0.65216886    -0.09200
C762        C  0.59090224  0.45147044  0.65718845    -0.16900
H763        H  0.46741526  0.22120305  0.70431634     0.11300
H764        H  0.51908007  0.29964988  0.70320412     0.10500
H765        H  0.41430050  0.32357946  0.68727580     0.10500
H766        H  0.36207426  0.24457538  0.68848601     0.11000
H767        H  0.55962970  0.46989884  0.71368879     0.11100
H768        H  0.61972835  0.54332896  0.70512663     0.11000
H769        H  0.64375926  0.49977387  0.63493615     0.11200
H770        H  0.58289905  0.42577096  0.64380853     0.10000
C771        C  0.29477652  0.96447096  0.41149779    -0.03800
C772        C  0.26633847  0.94365976  0.43165308    -0.09600
C773        C  0.27882566  0.95898669  0.45595746    -0.17200
C774        C  0.31979611  0.99526303  0.46050064     0.24900
C775        C  0.34826942  0.01658341  0.44059398    -0.18900
C776        C  0.33583752  0.00125914  0.41618410    -0.07800
C777        C  0.33189427  0.01036842  0.48568915    -0.14200
C778        C  0.33810568  0.02082883  0.50733452    -0.14000
C779        C  0.34138076  0.03204587  0.53329743     0.24800
C780        C  0.34283140  0.00454638  0.55165378    -0.19400
C781        C  0.34376740  0.01457679  0.57698442    -0.07900
C782        C  0.34303126  0.05215604  0.58415231    -0.03900
C783        C  0.34161234  0.07953216  0.56549731    -0.09200
C784        C  0.34082736  0.06952872  0.54026859    -0.16900
H785        H  0.23452195  0.91533180  0.42869108     0.11300
H786        H  0.25650711  0.94240886  0.47125535     0.10500
H787        H  0.38000605  0.04484747  0.44393981     0.10500
H788        H  0.35842414  0.01800527  0.40103959     0.11000
H789        H  0.34290841  0.97522483  0.54639581     0.11100
H790        H  0.34490411  0.99293395  0.59090663     0.11000
H791        H  0.34120108  0.10882406  0.57036525     0.11200
H792        H  0.33940534  0.09084245  0.52620242     0.10000
loop_ 
_geom_bond_atom_site_label_1 
_geom_bond_atom_site_label_2 
_geom_bond_distance 
_geom_bond_site_symmetry_2 
_ccdc_geom_bond_type 
O1          Cr19   1.964       .  S
O1            C9   1.258       .  A
O2          Cr19   2.023       .  S
O2            C3   1.270       .  A
C3            O4   1.258       .  A
C3          C782   1.478       .  S
O4          Cr20   1.959       .  S
O5          Cr20   2.067       .  S
O5            C6   1.277       .  A
C6            O7   1.253       .  A
C6          C705   1.489       .  S
O7          Cr21   1.950       .  S
O8          Cr21   2.042       .  S
O8            C9   1.275       .  A
C9          C738   1.492   1_545  S
O10         Cr19   2.027       .  S
O10          C18   1.271       .  A
O11         Cr19   1.963       .  S
O11          C12   1.259       .  A
C12          O13   1.275       .  A
C12         C694   1.492       .  S
O13         Cr20   2.047       .  S
O14         Cr20   1.951       .  S
O14          C15   1.252       .  A
C15          O16   1.275       .  A
C15         C749   1.481       .  S
O16         Cr21   2.058       .  S
O17         Cr21   1.962       .  S
O17          C18   1.259       .  A
C18         C661   1.482       .  S
Cr19         O22   1.762       .  S
Cr20         O22   1.761       .  S
Cr21         O22   1.760       .  S
O23         Cr41   1.961   1_554  S
O23          C31   1.259   1_554  A
O24         Cr41   2.027   1_544  S
O24          C25   1.271       .  A
C25          O26   1.260       .  A
C25         C551   1.483       .  S
O26         Cr42   1.964       .  S
O27         Cr42   2.047   1_565  S
O27          C28   1.271       .  A
C28          O29   1.252       .  A
C28         C650   1.477       .  S
O29         Cr43   1.956   1_554  S
O30         Cr43   2.036       .  S
O30          C31   1.274       .  A
C31         C584   1.487       .  S
O32         Cr41   2.019       .  S
O32          C40   1.269       .  A
O33         Cr41   1.967   1_545  S
O33          C34   1.259   1_556  A
C34          O35   1.272       .  A
C34         C617   1.488   1_554  S
O35         Cr42   2.033       .  S
O36         Cr42   1.947   1_556  S
O36          C37   1.253       .  A
C37          O38   1.275   1_545  A
C37         C595   1.475       .  S
O38         Cr43   2.055       .  S
O39         Cr43   1.968       .  S
O39          C40   1.259       .  A
C40         C672   1.482       .  S
Cr41         O44   1.762       .  S
Cr42         O44   1.764   1_544  S
Cr43         O44   1.761       .  S
O45         Cr63   1.967       .  S
O45          C53   1.259   1_565  A
O46         Cr63   2.014       .  S
O46          C47   1.268       .  A
C47          O48   1.260       .  A
C47         C771   1.478       .  S
O48         Cr64   1.968       .  S
O49         Cr64   2.065       .  S
O49          C50   1.276       .  A
C50          O51   1.252       .  A
C50         C485   1.489       .  S
O51         Cr65   1.951       .  S
O52         Cr65   2.038       .  S
O52          C53   1.275   1_565  A
C53         C518   1.493       .  S
O54         Cr63   2.018       .  S
O54          C62   1.269       .  A
O55         Cr63   1.964       .  S
O55          C56   1.259       .  A
C56          O57   1.276       .  A
C56         C474   1.493       .  S
O57         Cr64   2.045       .  S
O58         Cr64   1.950       .  S
O58          C59   1.252       .  A
C59          O60   1.275       .  A
C59         C540   1.481       .  S
O60         Cr65   2.058       .  S
O61         Cr65   1.968       .  S
O61          C62   1.259       .  A
C62         C562   1.481       .  S
Cr63         O66   1.765       .  S
Cr64         O66   1.764       .  S
Cr65         O66   1.762       .  S
O67         Cr85   1.959       .  S
O67          C75   1.258       .  A
O68         Cr85   2.027       .  S
O68          C69   1.271       .  A
C69          O70   1.259       .  A
C69         C386   1.483       .  S
O70         Cr86   1.965       .  S
O71         Cr86   2.059       .  S
O71          C72   1.275       .  A
C72          O73   1.253       .  A
C72         C419   1.483       .  S
O73         Cr87   1.951       .  S
O74         Cr87   2.045       .  S
O74          C75   1.275       .  A
C75         C760   1.490       .  S
O76         Cr85   2.031       .  S
O76          C84   1.271       .  A
O77         Cr85   1.963       .  S
O77          C78   1.259       .  A
C78          O79   1.274       .  A
C78         C397   1.488       .  S
O79         Cr86   2.040       .  S
O80         Cr86   1.952       .  S
O80          C81   1.252       .  A
C81          O82   1.275       .  A
C81         C727   1.482       .  S
O82         Cr87   2.058       .  S
O83         Cr87   1.968       .  S
O83          C84   1.259       .  A
C84         C441   1.485       .  S
Cr85         O88   1.762       .  S
Cr86         O88   1.764       .  S
Cr87         O88   1.761       .  S
O89        Cr107   2.000       .  S
O89          C97   1.267       .  A
O90        Cr107   1.998   1_556  S
O90          C91   1.261       .  A
C91          O92   1.259       .  A
C91         C375   1.485       .  S
O92        Cr108   1.986       .  S
O93        Cr108   2.014       .  S
O93          C94   1.267       .  A
C94          O95   1.260   1_556  A
C94         C628   1.473       .  S
O95        Cr109   1.989       .  S
O96        Cr109   1.998       .  S
O96          C97   1.267       .  A
C97         C331   1.486       .  S
O98        Cr107   1.994       .  S
O98         C106   1.262       .  A
O99        Cr107   2.006   1_556  S
O99         C100   1.269       .  A
C100        O101   1.268       .  A
C100        C639   1.489       .  S
O101       Cr108   1.997       .  S
O102       Cr108   1.989       .  S
O102        C103   1.261   1_556  A
C103        O104   1.268       .  A
C103        C364   1.469       .  S
O104       Cr109   2.012       .  S
O105       Cr109   1.989       .  S
O105        C106   1.261       .  A
C106        C309   1.483       .  S
Cr107       O110   1.771       .  S
Cr108       O110   1.766   1_556  S
Cr109       O110   1.768       .  S
O111       Cr129   1.969       .  S
O111        C119   1.259       .  A
O112       Cr129   2.026       .  S
O112        C113   1.271       .  A
C113        O114   1.259       .  A
C113        C320   1.483       .  S
O114       Cr130   1.964       .  S
O115       Cr130   2.057       .  S
O115        C116   1.274       .  A
C116        O117   1.253       .  A
C116        C463   1.481       .  S
O117       Cr131   1.955       .  S
O118       Cr131   2.040       .  S
O118        C119   1.274       .  A
C119        C276   1.494       .  S
O120       Cr129   2.028       .  S
O120        C128   1.271       .  A
O121       Cr129   1.971       .  S
O121        C122   1.260       .  A
C122        O123   1.274       .  A
C122        C496   1.496       .  S
O123       Cr130   2.040       .  S
O124       Cr130   1.952       .  S
O124        C125   1.253       .  A
C125        O126   1.274       .  A
C125        C287   1.482       .  S
O126       Cr131   2.057       .  S
O127       Cr131   1.967       .  S
O127        C128   1.260       .  A
C128        C452   1.486       .  S
Cr129       O132   1.764       .  S
Cr130       O132   1.763       .  S
Cr131       O132   1.763       .  S
O133       Cr151   1.971       .  S
O133        C141   1.260       .  A
O134       Cr151   2.018       .  S
O134        C135   1.270       .  A
C135        O136   1.260       .  A
C135        C243   1.480       .  S
O136       Cr152   1.965       .  S
O137       Cr152   2.060       .  S
O137        C138   1.275       .  A
C138        O139   1.253       .  A
C138        C408   1.482       .  S
O139       Cr153   1.951       .  S
O140       Cr153   2.044       .  S
O140        C141   1.275       .  A
C141        C716   1.496   1_655  S
O142       Cr151   2.016       .  S
O142        C150   1.269       .  A
O143       Cr151   1.968       .  S
O143        C144   1.259       .  A
C144        O145   1.274       .  A
C144        C430   1.491       .  S
O145       Cr152   2.039       .  S
O146       Cr152   1.950       .  S
O146        C147   1.251       .  A
C147        O148   1.276       .  A
C147        C683   1.482       .  S
O148       Cr153   2.064       .  S
O149       Cr153   1.967       .  S
O149        C150   1.260       .  A
C150        C221   1.480       .  S
Cr151       O154   1.760       .  S
Cr152       O154   1.762       .  S
Cr153       O154   1.762       .  S
O155       Cr173   1.956       .  S
O155        C163   1.258   1_556  A
O156       Cr173   2.023   1_455  S
O156        C157   1.270       .  A
C157        O158   1.259   1_455  A
C157        C232   1.481       .  S
O158       Cr174   1.965   1_655  S
O159       Cr174   2.054   1_655  S
O159        C160   1.274       .  A
C160        O161   1.252       .  A
C160        C342   1.479       .  S
O161       Cr175   1.950   1_556  S
O162       Cr175   2.038       .  S
O162        C163   1.275       .  A
C163        C606   1.486   1_554  S
O164       Cr173   2.022   1_554  S
O164        C172   1.269       .  A
O165       Cr173   1.957   1_454  S
O165        C166   1.258   1_554  A
C166        O167   1.274       .  A
C166        C353   1.487       .  S
O167       Cr174   2.043       .  S
O168       Cr174   1.946   1_554  S
O168        C169   1.252       .  A
C169        O170   1.274   1_455  A
C169        C573   1.474       .  S
O170       Cr175   2.053       .  S
O171       Cr175   1.971       .  S
O171        C172   1.259       .  A
C172        C199   1.484       .  S
Cr173       O176   1.759       .  S
Cr174       O176   1.763   1_455  S
Cr175       O176   1.761   1_554  S
O177       Cr195   1.962       .  S
O177        C185   1.259   1_455  A
O178       Cr195   2.028       .  S
O178        C179   1.272       .  A
C179        O180   1.259       .  A
C179        C254   1.481       .  S
O180       Cr196   1.962       .  S
O181       Cr196   2.063       .  S
O181        C182   1.275       .  A
C182        O183   1.250       .  A
C182        C507   1.483       .  S
O183       Cr197   1.952       .  S
O184       Cr197   2.042       .  S
O184        C185   1.275   1_455  A
C185        C298   1.492       .  S
O186       Cr195   2.030       .  S
O186        C194   1.271       .  A
O187       Cr195   1.965       .  S
O187        C188   1.259       .  A
C188        O189   1.275       .  A
C188        C529   1.492       .  S
O189       Cr196   2.043       .  S
O190       Cr196   1.945       .  S
O190        C191   1.251       .  A
C191        O192   1.277       .  A
C191        C265   1.485       .  S
O192       Cr197   2.067       .  S
O193       Cr197   1.960       .  S
O193        C194   1.258       .  A
C194        C210   1.484       .  S
Cr195       O198   1.762       .  S
Cr196       O198   1.760       .  S
Cr197       O198   1.761       .  S
C199        C200   1.408   1_655  A
C199        C204   1.407       .  A
C200        C201   1.399       .  A
C200        H213   1.083       .  S
C201        C202   1.399   1_455  A
C201        H214   1.084       .  S
C202        C203   1.401       .  A
C202        C205   1.443   1_655  S
C203        C204   1.401       .  A
C203        H215   1.083       .  S
C204        H216   1.083       .  S
C205        C206   1.208       .  T
C206        C207   1.443       .  S
C207        C208   1.403   1_455  A
C207        C212   1.397       .  A
C208        C209   1.404       .  A
C208        H217   1.083       .  S
C209        C210   1.407   1_655  A
C209        H218   1.083       .  S
C210        C211   1.409       .  A
C211        C212   1.396       .  A
C211        H219   1.083       .  S
C212        H220   1.084       .  S
C221        C222   1.407       .  A
C221        C226   1.407       .  A
C222        C223   1.400   1_655  A
C222        H235   1.083   1_655  S
C223        C224   1.400   1_455  A
C223        H236   1.083       .  S
C224        C225   1.399       .  A
C224        C227   1.439       .  S
C225        C226   1.397       .  A
C225        H237   1.084       .  S
C226        H238   1.083       .  S
C227        C228   1.206       .  T
C228        C229   1.439       .  S
C229        C230   1.400   1_655  A
C229        C234   1.398       .  A
C230        C231   1.400       .  A
C230        H239   1.084       .  S
C231        C232   1.407       .  A
C231        H240   1.083       .  S
C232        C233   1.408   1_455  A
C233        C234   1.397       .  A
C233        H241   1.083       .  S
C234        H242   1.083       .  S
C243        C244   1.407       .  A
C243        C248   1.407       .  A
C244        C245   1.400   1_655  A
C244        H257   1.083   1_655  S
C245        C246   1.400   1_455  A
C245        H258   1.083       .  S
C246        C247   1.398       .  A
C246        C249   1.439       .  S
C247        C248   1.396       .  A
C247        H259   1.084       .  S
C248        H260   1.083       .  S
C249        C250   1.205   1_655  T
C250        C251   1.439       .  S
C251        C252   1.398       .  A
C251        C256   1.401   1_455  A
C252        C253   1.396       .  A
C252        H261   1.084       .  S
C253        C254   1.408       .  A
C253        H262   1.083       .  S
C254        C255   1.407       .  A
C255        C256   1.401   1_455  A
C255        H263   1.083   1_455  S
C256        H264   1.084       .  S
C265        C266   1.410       .  A
C265        C270   1.406       .  A
C266        C267   1.398       .  A
C266        H279   1.084       .  S
C267        C268   1.398       .  A
C267        H280   1.084       .  S
C268        C269   1.407       .  A
C268        C271   1.453       .  S
C269        C270   1.409       .  A
C269        H281   1.083       .  S
C270        H282   1.083       .  S
C271        C272   1.214       .  T
C272        C273   1.454       .  S
C273        C274   1.399       .  A
C273        C278   1.405       .  A
C274        C275   1.400       .  A
C274        H283   1.083       .  S
C275        C276   1.411       .  A
C275        H284   1.083       .  S
C276        C277   1.408       .  A
C277        C278   1.408       .  A
C277        H285   1.083       .  S
C278        H286   1.083       .  S
C287        C288   1.408       .  A
C287        C292   1.406       .  A
C288        C289   1.398       .  A
C288        H301   1.084       .  S
C289        C290   1.399       .  A
C289        H302   1.084       .  S
C290        C291   1.405       .  A
C290        C293   1.450   1_565  S
C291        C292   1.407       .  A
C291        H303   1.083       .  S
C292        H304   1.083       .  S
C293        C294   1.212       .  T
C294        C295   1.450       .  S
C295        C296   1.398       .  A
C295        C300   1.405       .  A
C296        C297   1.399       .  A
C296        H305   1.084       .  S
C297        C298   1.412       .  A
C297        H306   1.083       .  S
C298        C299   1.407       .  A
C299        C300   1.406       .  A
C299        H307   1.083       .  S
C300        H308   1.083       .  S
C309        C310   1.409       .  A
C309        C314   1.406       .  A
C310        C311   1.395       .  A
C310        H323   1.083       .  S
C311        C312   1.397       .  A
C311        H324   1.084       .  S
C312        C313   1.403       .  A
C312        C315   1.442       .  S
C313        C314   1.403       .  A
C313        H325   1.083       .  S
C314        H326   1.083       .  S
C315        C316   1.207       .  T
C316        C317   1.442       .  S
C317        C318   1.398       .  A
C317        C322   1.402       .  A
C318        C319   1.397       .  A
C318        H327   1.084       .  S
C319        C320   1.409       .  A
C319        H328   1.083       .  S
C320        C321   1.407       .  A
C321        C322   1.402       .  A
C321        H329   1.083       .  S
C322        H330   1.084       .  S
C331        C332   1.408   1_554  A
C331        C336   1.409       .  A
C332        C333   1.404       .  A
C332        H345   1.083       .  S
C333        C334   1.403       .  A
C333        H346   1.083       .  S
C334        C335   1.399   1_556  A
C334        C337   1.448       .  S
C335        C336   1.399       .  A
C335        H347   1.083       .  S
C336        H348   1.083       .  S
C337        C338   1.211       .  T
C338        C339   1.448       .  S
C339        C340   1.405       .  A
C339        C344   1.398       .  A
C340        C341   1.406       .  A
C340        H349   1.083       .  S
C341        C342   1.405       .  A
C341        H350   1.083       .  S
C342        C343   1.408       .  A
C343        C344   1.397       .  A
C343        H351   1.084       .  S
C344        H352   1.084       .  S
C353        C354   1.409   1_556  A
C353        C358   1.407       .  A
C354        C355   1.394       .  A
C354        H367   1.083       .  S
C355        C356   1.396       .  A
C355        H368   1.084       .  S
C356        C357   1.406   1_554  A
C356        C359   1.447       .  S
C357        C358   1.408       .  A
C357        H369   1.083       .  S
C358        H370   1.083       .  S
C359        C360   1.211       .  T
C360        C361   1.447       .  S
C361        C362   1.401       .  A
C361        C366   1.402       .  A
C362        C363   1.400       .  A
C362        H371   1.084       .  S
C363        C364   1.405       .  A
C363        H372   1.083       .  S
C364        C365   1.404       .  A
C365        C366   1.402       .  A
C365        H373   1.083       .  S
C366        H374   1.083       .  S
C375        C376   1.407       .  A
C375        C380   1.410       .  A
C376        C377   1.404       .  A
C376        H389   1.083       .  S
C377        C378   1.403       .  A
C377        H390   1.083       .  S
C378        C379   1.397       .  A
C378        C381   1.443       .  S
C379        C380   1.395       .  A
C379        H391   1.084       .  S
C380        H392   1.083       .  S
C381        C382   1.208       .  T
C382        C383   1.444       .  S
C383        C384   1.398       .  A
C383        C388   1.403       .  A
C384        C385   1.397       .  A
C384        H393   1.083       .  S
C385        C386   1.408       .  A
C385        H394   1.083       .  S
C386        C387   1.407       .  A
C387        C388   1.403       .  A
C387        H395   1.083       .  S
C388        H396   1.084       .  S
C397        C398   1.407       .  A
C397        C402   1.410       .  A
C398        C399   1.407       .  A
C398        H411   1.083       .  S
C399        C400   1.406       .  A
C399        H412   1.083       .  S
C400        C401   1.398       .  A
C400        C403   1.450       .  S
C401        C402   1.397       .  A
C401        H413   1.084       .  S
C402        H414   1.083       .  S
C403        C404   1.212       .  T
C404        C405   1.449   1_565  S
C405        C406   1.405       .  A
C405        C410   1.398       .  A
C406        C407   1.407       .  A
C406        H415   1.083       .  S
C407        C408   1.406       .  A
C407        H416   1.082       .  S
C408        C409   1.408       .  A
C409        C410   1.397       .  A
C409        H417   1.083       .  S
C410        H418   1.084       .  S
C419        C420   1.408       .  A
C419        C424   1.407       .  A
C420        C421   1.397       .  A
C420        H433   1.083       .  S
C421        C422   1.398       .  A
C421        H434   1.084       .  S
C422        C423   1.406       .  A
C422        C425   1.451       .  S
C423        C424   1.409       .  A
C423        H435   1.083       .  S
C424        H436   1.083       .  S
C425        C426   1.213       .  T
C426        C427   1.451       .  S
C427        C428   1.399       .  A
C427        C432   1.404       .  A
C428        C429   1.401       .  A
C428        H437   1.083       .  S
C429        C430   1.411       .  A
C429        H438   1.083       .  S
C430        C431   1.407       .  A
C431        C432   1.406       .  A
C431        H439   1.083       .  S
C432        H440   1.083       .  S
C441        C442   1.408       .  A
C441        C446   1.408       .  A
C442        C443   1.405       .  A
C442        H455   1.083       .  S
C443        C444   1.403       .  A
C443        H456   1.083       .  S
C444        C445   1.398       .  A
C444        C447   1.445       .  S
C445        C446   1.397       .  A
C445        H457   1.084       .  S
C446        H458   1.083       .  S
C447        C448   1.209       .  T
C448        C449   1.445       .  S
C449        C450   1.403       .  A
C449        C454   1.398       .  A
C450        C451   1.404       .  A
C450        H459   1.083       .  S
C451        C452   1.408       .  A
C451        H460   1.083       .  S
C452        C453   1.408       .  A
C453        C454   1.397       .  A
C453        H461   1.083       .  S
C454        H462   1.084       .  S
C463        C464   1.406       .  A
C463        C468   1.407       .  A
C464        C465   1.407       .  A
C464        H477   1.083       .  S
C465        C466   1.405       .  A
C465        H478   1.083       .  S
C466        C467   1.400       .  A
C466        C469   1.452       .  S
C467        C468   1.399       .  A
C467        H479   1.083       .  S
C468        H480   1.084       .  S
C469        C470   1.213       .  T
C470        C471   1.452       .  S
C471        C472   1.398       .  A
C471        C476   1.406       .  A
C472        C473   1.399       .  A
C472        H481   1.084       .  S
C473        C474   1.411       .  A
C473        H482   1.082       .  S
C474        C475   1.408       .  A
C475        C476   1.408       .  A
C475        H483   1.083       .  S
C476        H484   1.083       .  S
C485        C486   1.408       .  A
C485        C490   1.409       .  A
C486        C487   1.411       .  A
C486        H499   1.083       .  S
C487        C488   1.407       .  A
C487        H500   1.083       .  S
C488        C489   1.399       .  A
C488        C491   1.456   1_455  S
C489        C490   1.399       .  A
C489        H501   1.084       .  S
C490        H502   1.084       .  S
C491        C492   1.216       .  T
C492        C493   1.457       .  S
C493        C494   1.400       .  A
C493        C498   1.405       .  A
C494        C495   1.403       .  A
C494        H503   1.083       .  S
C495        C496   1.411       .  A
C495        H504   1.083       .  S
C496        C497   1.408       .  A
C497        C498   1.408       .  A
C497        H505   1.083       .  S
C498        H506   1.083       .  S
C507        C508   1.406       .  A
C507        C512   1.408       .  A
C508        C509   1.408       .  A
C508        H521   1.083       .  S
C509        C510   1.405       .  A
C509        H522   1.083       .  S
C510        C511   1.400       .  A
C510        C513   1.454       .  S
C511        C512   1.401       .  A
C511        H523   1.084       .  S
C512        H524   1.084       .  S
C513        C514   1.215       .  T
C514        C515   1.454       .  S
C515        C516   1.405       .  A
C515        C520   1.400       .  A
C516        C517   1.406       .  A
C516        H525   1.083       .  S
C517        C518   1.407       .  A
C517        H526   1.083       .  S
C518        C519   1.411       .  A
C519        C520   1.402       .  A
C519        H527   1.083       .  S
C520        H528   1.083       .  S
C529        C530   1.408       .  A
C529        C534   1.411       .  A
C530        C531   1.407       .  A
C530        H543   1.083       .  S
C531        C532   1.405       .  A
C531        H544   1.083       .  S
C532        C533   1.398       .  A
C532        C535   1.451       .  S
C533        C534   1.399       .  A
C533        H545   1.084       .  S
C534        H546   1.083       .  S
C535        C536   1.213       .  T
C536        C537   1.451       .  S
C537        C538   1.406       .  A
C537        C542   1.399       .  A
C538        C539   1.408       .  A
C538        H547   1.083       .  S
C539        C540   1.406       .  A
C539        H548   1.083       .  S
C540        C541   1.408       .  A
C541        C542   1.398       .  A
C541        H549   1.084       .  S
C542        H550   1.083       .  S
C551        C552   1.408   1_545  A
C551        C556   1.408       .  A
C552        C553   1.396       .  A
C552        H565   1.083       .  S
C553        C554   1.398       .  A
C553        H566   1.083       .  S
C554        C555   1.402   1_565  A
C554        C557   1.441       .  S
C555        C556   1.402       .  A
C555        H567   1.084       .  S
C556        H568   1.083       .  S
C557        C558   1.207       .  T
C558        C559   1.441       .  S
C559        C560   1.402   1_565  A
C559        C564   1.398       .  A
C560        C561   1.401   1_545  A
C560        H569   1.083       .  S
C561        C562   1.407       .  A
C561        H570   1.083   1_565  S
C562        C563   1.408       .  A
C563        C564   1.397       .  A
C563        H571   1.083       .  S
C564        H572   1.084       .  S
C573        C574   1.405       .  A
C573        C578   1.406       .  A
C574        C575   1.405       .  A
C574        H587   1.083       .  S
C575        C576   1.404       .  A
C575        H588   1.083       .  S
C576        C577   1.399       .  A
C576        C579   1.447       .  S
C577        C578   1.397       .  A
C577        H589   1.084       .  S
C578        H590   1.084       .  S
C579        C580   1.210       .  T
C580        C581   1.447       .  S
C581        C582   1.404   1_554  A
C581        C586   1.398       .  A
C582        C583   1.405       .  A
C582        H591   1.083       .  S
C583        C584   1.407       .  A
C583        H592   1.083       .  S
C584        C585   1.410   1_556  A
C585        C586   1.398       .  A
C585        H593   1.083       .  S
C586        H594   1.084       .  S
C595        C596   1.405       .  A
C595        C600   1.407       .  A
C596        C597   1.405       .  A
C596        H609   1.083       .  S
C597        C598   1.404       .  A
C597        H610   1.083       .  S
C598        C599   1.398       .  A
C598        C601   1.446       .  S
C599        C600   1.397       .  A
C599        H611   1.084       .  S
C600        H612   1.084       .  S
C601        C602   1.210       .  T
C602        C603   1.446       .  S
C603        C604   1.404   1_556  A
C603        C608   1.397       .  A
C604        C605   1.405       .  A
C604        H613   1.083       .  S
C605        C606   1.406   1_554  A
C605        H614   1.083       .  S
C606        C607   1.410       .  A
C607        C608   1.397       .  A
C607        H615   1.083       .  S
C608        H616   1.083       .  S
C617        C618   1.410       .  A
C617        C622   1.407   1_556  A
C618        C619   1.398       .  A
C618        H631   1.083       .  S
C619        C620   1.398       .  A
C619        H632   1.084       .  S
C620        C621   1.404   1_556  A
C620        C623   1.448       .  S
C621        C622   1.405       .  A
C621        H633   1.083       .  S
C622        H634   1.083       .  S
C623        C624   1.211       .  T
C624        C625   1.448       .  S
C625        C626   1.404       .  A
C625        C630   1.400       .  A
C626        C627   1.405       .  A
C626        H635   1.083       .  S
C627        C628   1.405       .  A
C627        H636   1.083       .  S
C628        C629   1.405       .  A
C629        C630   1.397       .  A
C629        H637   1.084       .  S
C630        H638   1.084       .  S
C639        C640   1.408   1_556  A
C639        C644   1.410       .  A
C640        C641   1.404       .  A
C640        H653   1.082       .  S
C641        C642   1.403       .  A
C641        H654   1.084       .  S
C642        C643   1.399       .  A
C642        C645   1.449       .  S
C643        C644   1.400   1_554  A
C643        H655   1.083       .  S
C644        H656   1.083       .  S
C645        C646   1.211       .  T
C646        C647   1.448       .  S
C647        C648   1.404       .  A
C647        C652   1.400       .  A
C648        C649   1.405       .  A
C648        H657   1.083       .  S
C649        C650   1.405       .  A
C649        H658   1.083       .  S
C650        C651   1.406       .  A
C651        C652   1.398       .  A
C651        H659   1.084       .  S
C652        H660   1.083       .  S
C661        C662   1.407   1_545  A
C661        C666   1.408       .  A
C662        C663   1.402       .  A
C662        H675   1.083       .  S
C663        C664   1.402   1_565  A
C663        H676   1.083       .  S
C664        C665   1.397       .  A
C664        C667   1.441   1_545  S
C665        C666   1.395       .  A
C665        H677   1.084       .  S
C666        H678   1.083       .  S
C667        C668   1.207       .  T
C668        C669   1.441       .  S
C669        C670   1.399       .  A
C669        C674   1.401       .  A
C670        C671   1.397       .  A
C670        H679   1.084       .  S
C671        C672   1.408       .  A
C671        H680   1.083       .  S
C672        C673   1.407       .  A
C673        C674   1.400       .  A
C673        H681   1.083       .  S
C674        H682   1.083       .  S
C683        C684   1.406       .  A
C683        C688   1.408       .  A
C684        C685   1.408       .  A
C684        H697   1.082       .  S
C685        C686   1.405       .  A
C685        H698   1.083       .  S
C686        C687   1.399       .  A
C686        C689   1.452       .  S
C687        C688   1.399       .  A
C687        H699   1.084       .  S
C688        H700   1.084       .  S
C689        C690   1.213       .  T
C690        C691   1.452       .  S
C691        C692   1.398       .  A
C691        C696   1.406       .  A
C692        C693   1.399       .  A
C692        H701   1.083       .  S
C693        C694   1.411       .  A
C693        H702   1.083       .  S
C694        C695   1.408       .  A
C695        C696   1.408       .  A
C695        H703   1.083       .  S
C696        H704   1.083       .  S
C705        C706   1.408       .  A
C705        C710   1.409       .  A
C706        C707   1.411       .  A
C706        H719   1.083       .  S
C707        C708   1.407       .  A
C707        H720   1.083       .  S
C708        C709   1.398       .  A
C708        C711   1.455       .  S
C709        C710   1.398       .  A
C709        H721   1.084       .  S
C710        H722   1.083       .  S
C711        C712   1.215       .  T
C712        C713   1.456       .  S
C713        C714   1.405       .  A
C713        C718   1.400       .  A
C714        C715   1.407       .  A
C714        H723   1.083       .  S
C715        C716   1.407       .  A
C715        H724   1.083       .  S
C716        C717   1.412       .  A
C717        C718   1.403       .  A
C717        H725   1.083       .  S
C718        H726   1.084       .  S
C727        C728   1.408       .  A
C727        C732   1.406       .  A
C728        C729   1.399       .  A
C728        H741   1.083       .  S
C729        C730   1.399       .  A
C729        H742   1.084       .  S
C730        C731   1.405       .  A
C730        C733   1.451   1_655  S
C731        C732   1.407       .  A
C731        H743   1.083       .  S
C732        H744   1.083       .  S
C733        C734   1.213       .  T
C734        C735   1.452       .  S
C735        C736   1.399       .  A
C735        C740   1.405       .  A
C736        C737   1.400       .  A
C736        H745   1.083       .  S
C737        C738   1.411       .  A
C737        H746   1.083       .  S
C738        C739   1.407       .  A
C739        C740   1.406       .  A
C739        H747   1.082       .  S
C740        H748   1.083       .  S
C749        C750   1.408       .  A
C749        C754   1.406       .  A
C750        C751   1.398       .  A
C750        H763   1.084       .  S
C751        C752   1.399       .  A
C751        H764   1.084       .  S
C752        C753   1.405       .  A
C752        C755   1.450       .  S
C753        C754   1.407       .  A
C753        H765   1.083       .  S
C754        H766   1.083       .  S
C755        C756   1.212       .  T
C756        C757   1.450       .  S
C757        C758   1.398       .  A
C757        C762   1.405       .  A
C758        C759   1.398       .  A
C758        H767   1.084       .  S
C759        C760   1.411       .  A
C759        H768   1.083       .  S
C760        C761   1.407       .  A
C761        C762   1.407       .  A
C761        H769   1.083       .  S
C762        H770   1.083       .  S
C771        C772   1.406       .  A
C771        C776   1.408   1_565  A
C772        C773   1.394       .  A
C772        H785   1.082       .  S
C773        C774   1.397       .  A
C773        H786   1.084       .  S
C774        C775   1.400   1_565  A
C774        C777   1.435   1_565  S
C775        C776   1.399       .  A
C775        H787   1.083       .  S
C776        H788   1.083       .  S
C777        C778   1.203       .  T
C778        C779   1.435       .  S
C779        C780   1.400       .  A
C779        C784   1.397       .  A
C780        C781   1.399       .  A
C780        H789   1.084   1_545  S
C781        C782   1.406       .  A
C781        H790   1.083   1_545  S
C782        C783   1.408       .  A
C783        C784   1.394       .  A
C783        H791   1.083       .  S
C784        H792   1.084       .  S
