geometry optimzed in LAMMPS
_audit_creation_date              2020-12-01 
_audit_creation_method            'lammps2cif' 
_symmetry_space_group_name_H-M    'P1' 
_symmetry_Int_Tables_number       1 
_symmetry_cell_setting            triclinic 
loop_ 
_symmetry_equiv_pos_as_xyz 
  x,y,z 
_cell_length_a                    49.97120422 
_cell_length_b                    50.10986835003706 
_cell_length_c                    27.676517939048946 
_cell_angle_alpha                 90.0823829332859 
_cell_angle_beta                  90.3156204094894 
_cell_angle_gamma                 90.35368712960184 
loop_ 
_atom_site_label 
_atom_site_type_symbol 
_atom_site_fract_x 
_atom_site_fract_y 
_atom_site_fract_z 
_atom_site_charge 
Fe1        Fe  0.33882665  0.16128693  0.34906678     1.65800
Fe2        Fe  0.30672232  0.19507258  0.44008969     1.73200
Fe3        Fe  0.29415911  0.21040486  0.32196349     1.54400
O4          O  0.32938945  0.22208611  0.28853904    -0.80800
O5          O  0.26541195  0.19651013  0.43053218    -0.79100
O6          O  0.35423041  0.18529799  0.29391047    -0.83300
O7          O  0.31173128  0.14385368  0.30061298    -0.78200
O8          O  0.29519792  0.24534232  0.36180513    -0.80000
O9          O  0.30244517  0.15477372  0.45447554    -0.82700
C10         C  0.29663716  0.15505846  0.26969588     0.98000
C11         C  0.34949256  0.20826827  0.27614136     1.05500
O12         O  0.31328797  0.18891591  0.37053561    -1.11700
O13         O  0.34727326  0.19457079  0.45691656    -0.74100
O14         O  0.36873381  0.17572637  0.39504947    -0.77600
O15         O  0.29011515  0.17941101  0.27287620    -0.78300
C16         C  0.36868648  0.18758697  0.43579162     0.96900
O17         O  0.32688103  0.13322664  0.40008951    -0.76300
O18         O  0.30959478  0.23649797  0.43604062    -0.81500
C19         C  0.24930033  0.19776057  0.39477100     0.99600
C20         C  0.30203719  0.25285433  0.40385206     1.05500
O21         O  0.25716159  0.20055523  0.35132426    -0.77100
C22         C  0.31211935  0.13345272  0.43728333     1.03800
N23         N  0.23092577  0.06361296  0.99477446    -0.02600
C24         C  0.22955495  0.03693028  0.98576376     0.00000
C25         C  0.21278964  0.03168106  0.94707153    -0.22900
C26         C  0.20373055  0.05580703  0.93090370    -0.23100
C27         C  0.21498583  0.07507878  0.96055429    -0.00100
H28         H  0.20919293  0.01250328  0.93010570     0.13600
H29         H  0.19095889  0.05904304  0.89976805     0.13700
N30         N  0.43308904  0.26269061  0.99006697    -0.02600
C31         C  0.45564467  0.25384330  0.96822260     0.00000
C32         C  0.45739149  0.26314909  0.92157705    -0.22900
C33         C  0.43513035  0.27823265  0.91369988    -0.23100
C34         C  0.42024129  0.27746652  0.95575713    -0.00100
H35         H  0.47284572  0.25870008  0.89556725     0.13600
H36         H  0.42970129  0.28729553  0.87961464     0.13700
Fe37       Fe  0.34531309  0.85056968  0.84849037     1.65800
Fe38       Fe  0.30911886  0.81825567  0.93643558     1.73200
Fe39       Fe  0.30295210  0.79879351  0.81861255     1.54400
O40         O  0.29418153  0.83045065  0.77293711    -0.80800
O41         O  0.30690297  0.77709235  0.93395262    -0.79100
O42         O  0.32045821  0.86490838  0.79452644    -0.83300
O43         O  0.36506562  0.82670507  0.79837198    -0.78200
O44         O  0.26493152  0.80108308  0.84880921    -0.80000
O45         O  0.34944873  0.81544237  0.95642369    -0.82700
C46         C  0.35970496  0.80519768  0.77587909     0.98000
C47         C  0.30264796  0.85428835  0.76759271     1.05500
O48         O  0.31909454  0.82262359  0.86772612    -1.11700
O49         O  0.30775793  0.85853202  0.95104419    -0.74100
O50         O  0.32988361  0.87977216  0.89339759    -0.77600
O51         O  0.33818615  0.79227519  0.78230111    -0.78300
C52         C  0.31581678  0.87980158  0.93129954     0.96900
O53         O  0.37257982  0.83836977  0.90085119    -0.76300
O54         O  0.26837069  0.82013106  0.92166216    -0.81500
C55         C  0.30832759  0.75921164  0.90172387     0.99600
C56         C  0.25454262  0.81001119  0.88744338     1.05500
O57         O  0.31056280  0.76446458  0.85720874    -0.77100
C58         C  0.37143230  0.82426079  0.93908385     1.03800
N59         N  0.43601157  0.75021778  0.48516027    -0.02600
C60         C  0.46004252  0.75592344  0.46484161     0.00000
C61         C  0.46253424  0.74330603  0.42085878    -0.22900
C62         C  0.43913280  0.72951997  0.41320283    -0.23100
C63         C  0.42293454  0.73419648  0.45279746    -0.00100
H64         H  0.47939710  0.74442811  0.39655086     0.13600
H65         H  0.43419319  0.71815680  0.38107651     0.13700
N66         N  0.23387114  0.94653735  0.49940606    -0.02600
C67         C  0.23260383  0.97329638  0.49198789     0.00000
C68         C  0.21426335  0.97903332  0.45604226    -0.22900
C69         C  0.20417606  0.95504220  0.43996938    -0.23100
C70         C  0.21643061  0.93541936  0.46697469    -0.00100
H71         H  0.21013308  0.99845267  0.44073688     0.13600
H72         H  0.19012536  0.95214032  0.41050079     0.13700
Fe73       Fe  0.65214562  0.85273236  0.33355408     1.65800
Fe74       Fe  0.68596580  0.82285175  0.42708228     1.73200
Fe75       Fe  0.70162020  0.80826761  0.31014072     1.54400
O76         O  0.67006571  0.80190087  0.26246526    -0.80800
O77         O  0.72688260  0.82839570  0.42287641    -0.79100
O78         O  0.63454595  0.82425194  0.28868376    -0.83300
O79         O  0.67534437  0.86680203  0.27605740    -0.78200
O80         O  0.69282183  0.77200020  0.34219872    -0.80000
O81         O  0.68292443  0.86319742  0.44218407    -0.82700
C82         C  0.69830067  0.86167459  0.25866707     0.98000
C83         C  0.64547658  0.80799717  0.25967903     1.05500
O84         O  0.67991291  0.82798958  0.35701305    -1.11700
O85         O  0.64571880  0.81651622  0.44017702    -0.74100
O86         O  0.62476836  0.84236422  0.38674879    -0.77600
O87         O  0.71240230  0.84232681  0.27332180    -0.78300
C88         C  0.62465816  0.82724580  0.42355752     0.96900
O89         O  0.66695265  0.88339290  0.37617384    -0.76300
O90         O  0.69061723  0.78187952  0.42079655    -0.81500
C91         C  0.74363643  0.82126134  0.39127017     0.99600
C92         C  0.69166852  0.76516367  0.38630077     1.05500
O93         O  0.73662007  0.81233313  0.35009914    -0.77100
C94         C  0.67695928  0.88404406  0.41851032     1.03800
N95         N  0.75854680  0.93418469  0.96588267    -0.02600
C96         C  0.75077385  0.95696684  0.94341162     0.00000
C97         C  0.76210185  0.95885822  0.89828265    -0.22900
C98         C  0.77744082  0.93652562  0.89236358    -0.23100
C99         C  0.77473217  0.92133479  0.93389362    -0.00100
H100        H  0.75884726  0.97442717  0.87186228     0.13600
H101        H  0.78804597  0.93126250  0.85977800     0.13700
N102        N  0.55481380  0.73476576  0.99152794    -0.02600
C103        C  0.52806978  0.73234988  0.98283610     0.00000
C104        C  0.52324791  0.71241891  0.94928216    -0.22900
C105        C  0.54777063  0.70256694  0.93600893    -0.23100
C106        C  0.56682015  0.71647537  0.96235290    -0.00100
H107        H  0.50408599  0.70687056  0.93372139     0.13600
H108        H  0.55139965  0.68750845  0.90878546     0.13700
Fe109      Fe  0.64695883  0.15308724  0.84176846     1.65800
Fe110      Fe  0.67947500  0.18012995  0.94094674     1.73200
Fe111      Fe  0.69488637  0.20090809  0.82660478     1.54400
O112        O  0.70652956  0.16891277  0.78405880    -0.80800
O113        O  0.68248889  0.22129729  0.94139179    -0.79100
O114        O  0.67250430  0.13986731  0.78850440    -0.83300
O115        O  0.63044753  0.18057103  0.79431587    -0.78200
O116        O  0.72971455  0.19659233  0.86635999    -0.80000
O117        O  0.63877348  0.18429131  0.95296554    -0.82700
C118        C  0.64018359  0.20034789  0.77179698     0.98000
C119        C  0.69468265  0.14752452  0.77091484     1.05500
O120        O  0.67383931  0.17793886  0.86978601    -1.11700
O121        O  0.67821059  0.13900099  0.95085669    -0.74100
O122        O  0.65964789  0.12185922  0.88430685    -0.77600
O123        O  0.66354834  0.20922318  0.78016282    -0.78300
C124        C  0.67080489  0.11922450  0.92526812     0.96900
O125        O  0.61829269  0.16380250  0.89116265    -0.76300
O126        O  0.72075220  0.17740637  0.93704613    -0.81500
C127        C  0.68307627  0.23951886  0.90966625     0.99600
C128        C  0.73710649  0.18703236  0.90667429     1.05500
O129        O  0.68485125  0.23485089  0.86470711    -0.77100
C130        C  0.61778331  0.17660287  0.93073598     1.03800
N131        N  0.55230958  0.27800924  0.50472956    -0.02600
C132        C  0.52601600  0.27709454  0.49176716     0.00000
C133        C  0.52073420  0.29633217  0.45732367    -0.22900
C134        C  0.54455775  0.30928257  0.44820804    -0.23100
C135        C  0.56359490  0.29768465  0.47764532    -0.00100
H136        H  0.50200426  0.29928620  0.43829182     0.13600
H137        H  0.54802031  0.32404735  0.42039561     0.13700
N138        N  0.76365388  0.06705649  0.49284081    -0.02600
C139        C  0.75858492  0.04326911  0.47118826     0.00000
C140        C  0.77215799  0.04125159  0.42814039    -0.22900
C141        C  0.78605569  0.06470071  0.42256226    -0.23100
C142        C  0.78022381  0.08046276  0.46218978    -0.00100
H143        H  0.77107327  0.02494244  0.40250342     0.13600
H144        H  0.79764265  0.07023194  0.39119360     0.13700
Fe145      Fe  0.84215412  0.34811170  0.35329875     1.65800
Fe146      Fe  0.80525532  0.32176894  0.44592954     1.73200
Fe147      Fe  0.79152294  0.30440903  0.33060925     1.54400
O148        O  0.78010113  0.33877102  0.29501608    -0.80800
O149        O  0.79863579  0.28093968  0.44133446    -0.79100
O150        O  0.81877547  0.36182652  0.29598292    -0.83300
O151        O  0.85856682  0.31914574  0.30903103    -0.78200
O152        O  0.75661880  0.30514569  0.37161363    -0.80000
O153        O  0.84492086  0.31321211  0.46065267    -0.82700
C154        C  0.84644395  0.30512011  0.27761938     0.98000
C155        C  0.79524538  0.35745032  0.27954272     1.05500
O156        O  0.81294726  0.32509658  0.37665240    -1.11700
O157        O  0.81028425  0.36215802  0.45950844    -0.74100
O158        O  0.82925782  0.38006936  0.39431577    -0.77600
O159        O  0.82171197  0.29979124  0.28061833    -0.78300
C160        C  0.81808596  0.38219365  0.43525245     0.96900
O161        O  0.86887526  0.33611177  0.40669745    -0.76300
O162        O  0.76465761  0.32916604  0.43754114    -0.81500
C163        C  0.80165807  0.26358571  0.40830942     0.99600
C164        C  0.74859531  0.31693971  0.40946432     1.05500
O165        O  0.80317471  0.26945058  0.36373813    -0.77100
C166        C  0.86714808  0.32080117  0.44314577     1.03800
N167        N  0.93231790  0.24022479  0.00113399    -0.02600
C168        C  0.95879106  0.23818204  0.99035066     0.00000
C169        C  0.96280732  0.21827349  0.95673319    -0.22900
C170        C  0.93808780  0.20795423  0.94542696    -0.23100
C171        C  0.91968079  0.22159688  0.97293597    -0.00100
H172        H  0.98147379  0.21331868  0.93931541     0.13600
H173        H  0.93382052  0.19292197  0.91828791     0.13700
N174        N  0.74239213  0.43129833  0.98465285    -0.02600
C175        C  0.74997655  0.45370014  0.96089445     0.00000
C176        C  0.73720472  0.45532961  0.91678676    -0.22900
C177        C  0.72116477  0.43312709  0.91296674    -0.23100
C178        C  0.72472853  0.41847821  0.95491121    -0.00100
H179        H  0.73959825  0.47085591  0.88998334     0.13600
H180        H  0.70906016  0.42789650  0.88182515     0.13700
Fe181      Fe  0.14947010  0.34786899  0.84093554     1.65800
Fe182      Fe  0.18138790  0.31352648  0.93172578     1.73200
Fe183      Fe  0.19682486  0.30106723  0.81354093     1.54400
O184        O  0.16335297  0.29102231  0.77369875    -0.80800
O185        O  0.22235974  0.31082680  0.92586615    -0.79100
O186        O  0.13357176  0.32346697  0.78642011    -0.83300
O187        O  0.17524925  0.36603165  0.79161748    -0.78200
O188        O  0.19383646  0.26491779  0.84983093    -0.80000
O189        O  0.18631362  0.35366190  0.94806618    -0.82700
C190        C  0.19319689  0.35678970  0.76401778     0.98000
C191        C  0.14143414  0.30266250  0.76425220     1.05500
O192        O  0.17582070  0.32079810  0.86195057    -1.11700
O193        O  0.14098788  0.31397683  0.94764495    -0.74100
O194        O  0.11979983  0.33351296  0.88639799    -0.77600
O195        O  0.20257900  0.33349184  0.76879264    -0.78300
C196        C  0.11967823  0.32124319  0.92647839     0.96900
O197        O  0.16258398  0.37544193  0.89227508    -0.76300
O198        O  0.17803471  0.27276797  0.92358993    -0.81500
C199        C  0.23935519  0.31041217  0.89208204     0.99600
C200        C  0.18590910  0.25694662  0.89090901     1.05500
O201        O  0.23288571  0.30969472  0.84765515    -0.77100
C202        C  0.17732826  0.37510201  0.92991785     1.03800
N203        N  0.25799810  0.45016803  0.49426525    -0.02600
C204        C  0.26085087  0.47660064  0.48377571     0.00000
C205        C  0.27959399  0.48013536  0.44778815    -0.22900
C206        C  0.28840578  0.45522357  0.43505550    -0.23100
C207        C  0.27509708  0.43718708  0.46407647    -0.00100
H208        H  0.28494532  0.49873403  0.43037558     0.13600
H209        H  0.30240371  0.45065541  0.40655323     0.13700
N210        N  0.05207869  0.23551254  0.49015047    -0.02600
C211        C  0.02545817  0.23182971  0.48199332     0.00000
C212        C  0.02121457  0.21311755  0.44610995    -0.22900
C213        C  0.04601306  0.20540908  0.43047223    -0.23100
C214        C  0.06466406  0.21930750  0.45782988    -0.00100
H215        H  0.00215834  0.20705571  0.43074464     0.13600
H216        H  0.05004784  0.19150144  0.40149416     0.13700
Fe217      Fe  0.15058997  0.66377849  0.33356245     1.65800
Fe218      Fe  0.18187071  0.69846564  0.42507799     1.73200
Fe219      Fe  0.20047915  0.70911843  0.30790117     1.54400
O220        O  0.20852425  0.67471601  0.26907411    -0.80800
O221        O  0.17890539  0.73922805  0.41477731    -0.79100
O222        O  0.17615143  0.64540806  0.28560903    -0.83300
O223        O  0.13629976  0.68791741  0.27849668    -0.78200
O224        O  0.23551711  0.70245025  0.34640055    -0.80000
O225        O  0.14139689  0.69754530  0.43970207    -0.82700
C226        C  0.14554659  0.70741680  0.25426879     0.98000
C227        C  0.19720471  0.65218344  0.26328385     1.05500
O228        O  0.17754595  0.69057467  0.35532829    -1.11700
O229        O  0.18646007  0.65826387  0.44089485    -0.74100
O230        O  0.16254778  0.63606757  0.38521844    -0.77600
O231        O  0.16838849  0.71786658  0.26261533    -0.78300
C232        C  0.17754217  0.63665104  0.42255082     0.96900
O233        O  0.12055750  0.67840427  0.37754146    -0.76300
O234        O  0.22282912  0.70184470  0.42327554    -0.81500
C235        C  0.18726977  0.75467099  0.38160336     0.99600
C236        C  0.24074598  0.70251328  0.39128506     1.05500
O237        O  0.19584877  0.74615262  0.34118213    -0.77100
C238        C  0.12020898  0.69023775  0.41805179     1.03800
N239        N  0.05723706  0.76450200  0.97061794    -0.02600
C240        C  0.03120737  0.76172351  0.95610776     0.00000
C241        C  0.02712915  0.77502869  0.91297745    -0.22900
C242        C  0.05125318  0.78608405  0.89994586    -0.23100
C243        C  0.06932872  0.77936515  0.93562524    -0.00100
H244        H  0.00886568  0.77529591  0.89177206     0.13600
H245        H  0.05549265  0.79663615  0.86673711     0.13700
N246        N  0.25980376  0.56379432  0.98843208    -0.02600
C247        C  0.25495985  0.53923893  0.96908160     0.00000
C248        C  0.26832215  0.53634346  0.92594552    -0.22900
C249        C  0.28182205  0.55980288  0.91801979    -0.23100
C250        C  0.27611511  0.57651892  0.95639021    -0.00100
H251        H  0.26769096  0.51921414  0.90209214     0.13600
H252        H  0.29348665  0.56453543  0.88631199     0.13700
Fe253      Fe  0.84097226  0.65339799  0.82696021     1.65800
Fe254      Fe  0.80718404  0.67976229  0.92324608     1.73200
Fe255      Fe  0.79113187  0.69778824  0.80825775     1.54400
O256        O  0.82096159  0.70325465  0.75709043    -0.80800
O257        O  0.76587534  0.67445197  0.91858590    -0.79100
O258        O  0.85747811  0.68309993  0.78413786    -0.83300
O259        O  0.81651542  0.64058855  0.76987394    -0.78200
O260        O  0.80296480  0.73287410  0.84216944    -0.80000
O261        O  0.81072071  0.63877580  0.93419368    -0.82700
C262        C  0.79276968  0.64512809  0.75497183     0.98000
C263        C  0.84570865  0.69814122  0.75410138     1.05500
O264        O  0.81300415  0.67675593  0.85301863    -1.11700
O265        O  0.84770942  0.68650567  0.93673292    -0.74100
O266        O  0.86900719  0.66363684  0.87970189    -0.77600
O267        O  0.77846770  0.66386076  0.77183820    -0.78300
C268        C  0.86909834  0.67794710  0.91767239     0.96900
O269        O  0.82781848  0.62110113  0.86702550    -0.76300
O270        O  0.80239055  0.72091905  0.92010339    -0.81500
C271        C  0.74949889  0.68569150  0.88997651     0.99600
C272        C  0.80322679  0.73854423  0.88703649     1.05500
O273        O  0.75696804  0.69609720  0.85047428    -0.77100
C274        C  0.81775890  0.61879372  0.90891398     1.03800
N275        N  0.73205808  0.56780884  0.46528716    -0.02600
C276        C  0.73718630  0.54327887  0.44690330     0.00000
C277        C  0.72471313  0.54005959  0.40269788    -0.22900
C278        C  0.71157062  0.56348652  0.39320368    -0.23100
C279        C  0.71666032  0.58048151  0.43176278    -0.00100
H280        H  0.72613845  0.52299936  0.37883841     0.13600
H281        H  0.70086486  0.56807491  0.36019821     0.13700
N282        N  0.93672734  0.77519487  0.49158626    -0.02600
C283        C  0.96345783  0.77509200  0.48244612     0.00000
C284        C  0.96980135  0.79468145  0.44931776    -0.22900
C285        C  0.94627404  0.80706608  0.43705219    -0.23100
C286        C  0.92625833  0.79493924  0.46351235    -0.00100
H287        H  0.98912350  0.79813747  0.43290045     0.13600
H288        H  0.94385193  0.82255867  0.41019728     0.13700
C289        C  0.86921243  0.72468797  0.64177745     0.21200
C290        C  0.86721967  0.73344315  0.59366394    -0.38700
C291        C  0.89131337  0.74150813  0.57209471     0.20200
C292        C  0.91542294  0.74137190  0.59690195     0.22800
C293        C  0.91750023  0.73205401  0.64464081    -0.39200
C294        C  0.89349592  0.72347231  0.66592310     0.21600
N295        N  0.84921108  0.71648640  0.67057281    -0.32500
C296        C  0.86082275  0.70947302  0.71311919    -0.10000
C297        C  0.88849737  0.71337408  0.71147548    -0.28800
N298        N  0.93496451  0.75213462  0.56986959    -0.45400
C299        C  0.92326293  0.75915110  0.52744046    -0.04700
C300        C  0.89614218  0.75213614  0.52700789    -0.22100
H301        H  0.84824422  0.73434860  0.57469907     0.19700
H302        H  0.93637111  0.73183976  0.66400852     0.18500
H303        H  0.90294392  0.70954154  0.73986142     0.14800
H304        H  0.88162684  0.75494438  0.49841909     0.14700
H305        H  0.82891353  0.71525656  0.66153468     0.32800
H306        H  0.95467724  0.75586920  0.58075666     0.35600
C307        C  0.75582735  0.61514636  0.65754707     0.21200
C308        C  0.73422367  0.61181898  0.62532419    -0.38700
C309        C  0.73951387  0.59683599  0.58356677     0.20200
C310        C  0.76446988  0.58607206  0.57454713     0.22800
C311        C  0.78597782  0.58923747  0.60689173    -0.39200
C312        C  0.78065038  0.60410423  0.64870611     0.21600
N313        N  0.75656857  0.63018414  0.69787504    -0.32500
C314        C  0.78204731  0.62870839  0.71484738    -0.10000
C315        C  0.79756268  0.61239663  0.68531781    -0.28800
N316        N  0.76486523  0.57401988  0.53115554    -0.45400
C317        C  0.74002764  0.57731304  0.51233574    -0.04700
C318        C  0.72347426  0.59107349  0.54414749    -0.22100
H319        H  0.71494511  0.62087922  0.63161009     0.19700
H320        H  0.80563449  0.58133164  0.59939697     0.18500
H321        H  0.81877688  0.60848811  0.68854153     0.14800
H322        H  0.70282153  0.59671337  0.53853208     0.14700
H323        H  0.74101162  0.64164598  0.71182390     0.32800
H324        H  0.78129909  0.56504734  0.51474986     0.35600
C325        C  0.98107898  0.71196089  0.96352862     0.21200
C326        C  0.96711792  0.69043659  0.94232715    -0.38700
C327        C  0.93918284  0.69038915  0.94782787     0.20200
C328        C  0.92600726  0.71019441  0.97295166     0.22800
C329        C  0.93996371  0.73189317  0.99387227    -0.39200
C330        C  0.96798482  0.73204672  0.98802936     0.21600
N331        N  0.00687849  0.71865980  0.95626899    -0.32500
C332        C  0.01052329  0.74337302  0.97542510    -0.10000
C333        C  0.98658734  0.75225465  0.99586171    -0.28800
N334        N  0.89925480  0.70717695  0.96828456    -0.45400
C335        C  0.89534889  0.68561975  0.93916508    -0.04700
C336        C  0.91985942  0.67450562  0.92616698    -0.22100
H337        H  0.97712924  0.67570964  0.92034740     0.19700
H338        H  0.92959789  0.74834651  0.01068792     0.18500
H339        H  0.98238607  0.77223495  0.00851382     0.14800
H340        H  0.92314478  0.65816662  0.90131685     0.14700
H341        H  0.02025780  0.70858508  0.93394074     0.32800
H342        H  0.88462628  0.72017272  0.98104792     0.35600
C343        C  0.11835178  0.74038511  0.15029639     0.21200
C344        C  0.11743229  0.75908727  0.11273752    -0.38700
C345        C  0.09712814  0.75513624  0.07821937     0.20200
C346        C  0.07917684  0.73406060  0.08019191     0.22800
C347        C  0.07995126  0.71541960  0.11816420    -0.39200
C348        C  0.10013205  0.71953820  0.15321445     0.21600
N349        N  0.13632712  0.73925321  0.18660663    -0.32500
C350        C  0.12945710  0.71762138  0.21330750    -0.10000
C351        C  0.10688456  0.70490379  0.19368282    -0.28800
N352        N  0.06225989  0.73455835  0.04192831    -0.45400
C353        C  0.06966332  0.75621739  0.01557128    -0.04700
C354        C  0.09104310  0.76964373  0.03776220    -0.22100
H355        H  0.13165848  0.77540380  0.11026340     0.19700
H356        H  0.06602668  0.69883720  0.12012597     0.18500
H357        H  0.09735080  0.68677199  0.20626193     0.14800
H358        H  0.10069527  0.78794144  0.02704990     0.14700
H359        H  0.15263651  0.75205479  0.19220357     0.32800
H360        H  0.04714093  0.72074525  0.03408200     0.35600
C361        C  0.22718929  0.58356675  0.09622137     0.21200
C362        C  0.20566304  0.58734610  0.12801515    -0.38700
C363        C  0.21051088  0.60482149  0.16697934     0.20200
C364        C  0.23480562  0.61783251  0.17328944     0.22800
C365        C  0.25637101  0.61380799  0.14194991    -0.39200
C366        C  0.25165346  0.59612595  0.10346913     0.21600
N367        N  0.22720092  0.56951343  0.05463092    -0.32500
C368        C  0.25184496  0.57336753  0.03539381    -0.10000
C369        C  0.26779556  0.58939325  0.06529213    -0.28800
N370        N  0.23355798  0.63542275  0.20992501    -0.45400
C371        C  0.20834368  0.63355415  0.22742768    -0.04700
C372        C  0.19345973  0.61440814  0.20196787    -0.22100
H373        H  0.18631421  0.57806175  0.12199824     0.19700
H374        H  0.27517853  0.62440178  0.14623553     0.18500
H375        H  0.28806071  0.59618746  0.05888493     0.14800
H376        H  0.17245541  0.60960657  0.20620530     0.14700
H377        H  0.21109329  0.55913527  0.03928623     0.32800
H378        H  0.24857969  0.64871179  0.22098594     0.35600
C379        C  0.05157450  0.70182307  0.44821409     0.21200
C380        C  0.02404986  0.70355002  0.43832592    -0.38700
C381        C  0.00954797  0.72133077  0.46727735     0.20200
C382        C  0.02160296  0.73650798  0.50320029     0.22800
C383        C  0.04907822  0.73431281  0.51386667    -0.39200
C384        C  0.06355794  0.71641096  0.48500788     0.21600
N385        N  0.07013535  0.68954322  0.42117344    -0.32500
C386        C  0.09417924  0.69640600  0.44062052    -0.10000
C387        C  0.09083693  0.71276170  0.48108694    -0.28800
N388        N  0.00489481  0.75577767  0.51832041    -0.45400
C389        C  0.98199641  0.75281841  0.49216189    -0.04700
C390        C  0.98411586  0.73124446  0.46052998    -0.22100
H391        H  0.01496851  0.69336380  0.40780782     0.19700
H392        H  0.05887235  0.74715089  0.54010763     0.18500
H393        H  0.10636065  0.72248084  0.50225750     0.14800
H394        H  0.97050480  0.72620516  0.43130666     0.14700
H395        H  0.06672427  0.67857749  0.38958344     0.32800
H396        H  0.00988141  0.77185176  0.54076780     0.35600
C397        C  0.21170100  0.52702449  0.48101371     0.21200
C398        C  0.19010464  0.53975585  0.45789900    -0.38700
C399        C  0.19068609  0.56782697  0.45815296     0.20200
C400        C  0.21115663  0.58215120  0.48010562     0.22800
C401        C  0.23290796  0.56946947  0.50262048    -0.39200
C402        C  0.23239426  0.54141667  0.50213492     0.21600
N403        N  0.21781657  0.50088922  0.47903170    -0.32500
C404        C  0.24281518  0.49854723  0.49790804    -0.10000
C405        C  0.25235035  0.52346761  0.51319900    -0.28800
N406        N  0.20821270  0.60847199  0.47223602    -0.45400
C407        C  0.18591409  0.61105366  0.44446799    -0.04700
C408        C  0.17439317  0.58607204  0.43500031    -0.22100
H409        H  0.17472685  0.52860960  0.43879604     0.19700
H410        H  0.24974835  0.58063720  0.51709899     0.18500
H411        H  0.27255445  0.52831434  0.52464351     0.14800
H412        H  0.15717282  0.58175123  0.41235776     0.14700
H413        H  0.20719493  0.48616136  0.46012083     0.32800
H414        H  0.22144694  0.62364613  0.48276446     0.35600
C415        C  0.09450401  0.28043560  0.67396442     0.21200
C416        C  0.06991014  0.27234007  0.65346051    -0.38700
C417        C  0.07057277  0.26550584  0.60406967     0.20200
C418        C  0.09375801  0.26718814  0.57709322     0.22800
C419        C  0.11831566  0.27462183  0.59777690    -0.39200
C420        C  0.11779189  0.28083834  0.64709430     0.21600
N421        N  0.09949884  0.28822749  0.71990017    -0.32500
C422        C  0.12627841  0.29288764  0.72200234    -0.10000
C423        C  0.13825338  0.28836502  0.67748970    -0.28800
N424        N  0.08948366  0.25899070  0.53145500    -0.45400
C425        C  0.06362877  0.25075417  0.52961682    -0.04700
C426        C  0.05103542  0.25498960  0.57409301    -0.22100
H427        H  0.05173661  0.27108626  0.67445744     0.19700
H428        H  0.13664300  0.27506671  0.57712075     0.18500
H429        H  0.15914428  0.29096140  0.66835414     0.14800
H430        H  0.03092779  0.24936841  0.58436400     0.14700
H431        H  0.08573360  0.29003595  0.74796249     0.32800
H432        H  0.10360145  0.25878546  0.50388614     0.35600
C433        C  0.21291983  0.40525255  0.67493435     0.21200
C434        C  0.21987698  0.43035234  0.65547259    -0.38700
C435        C  0.22689793  0.43050371  0.60615771     0.20200
C436        C  0.22632427  0.40750629  0.57844064     0.22800
C437        C  0.21989455  0.38251916  0.59797478    -0.39200
C438        C  0.21359303  0.38227327  0.64719625     0.21600
N439        N  0.20561475  0.39945717  0.72069820    -0.32500
C440        C  0.20233242  0.37252461  0.72199028    -0.10000
C441        C  0.20724679  0.36122142  0.67687051    -0.28800
N442        N  0.23481689  0.41236681  0.53341850    -0.45400
C443        C  0.24211038  0.43846497  0.53245065    -0.04700
C444        C  0.23695575  0.45065439  0.57703642    -0.22100
H445        H  0.22034963  0.44828941  0.67729294     0.19700
H446        H  0.22044296  0.36442576  0.57659112     0.18500
H447        H  0.20570043  0.34037148  0.66685939     0.14800
H448        H  0.24187079  0.47085056  0.58791797     0.14700
H449        H  0.20324351  0.41286422  0.74925844     0.32800
H450        H  0.23600207  0.39829802  0.50577221     0.35600
C451        C  0.22692648  0.47671566  0.99996290     0.21200
C452        C  0.22916763  0.44902957  0.00792862    -0.38700
C453        C  0.20882036  0.43293774  0.98753347     0.20200
C454        C  0.18799729  0.44371414  0.96095344     0.22800
C455        C  0.18566883  0.47127956  0.95336151    -0.39200
C456        C  0.20581032  0.48732012  0.97397849     0.21600
N457        N  0.24580331  0.49555866  0.00803611    -0.32500
C458        C  0.23671863  0.51831318  0.98717002    -0.10000
C459        C  0.21170241  0.51384783  0.96592630    -0.28800
N460        N  0.17337413  0.42437683  0.93964966    -0.45400
C461        C  0.18485065  0.40095980  0.95231846    -0.04700
C462        C  0.20682169  0.40544800  0.98296131    -0.22100
H463        H  0.24640087  0.44051557  0.02590730     0.19700
H464        H  0.17025347  0.47949624  0.93024271     0.18500
H465        H  0.20115851  0.52712486  0.94168332     0.14800
H466        H  0.22077839  0.39077752  0.99651760     0.14700
H467        H  0.26507440  0.49234357  0.02156155     0.32800
H468        H  0.15751786  0.42705448  0.91542991     0.35600
C469        C  0.79696815  0.55922933  0.97022522     0.21200
C470        C  0.77972955  0.54363205  0.99878926    -0.38700
C471        C  0.78076291  0.51590969  0.99114320     0.20200
C472        C  0.79808818  0.50464454  0.95809930     0.22800
C473        C  0.81529460  0.52023149  0.92967384    -0.39200
C474        C  0.81385574  0.54788333  0.93660896     0.21600
N475        N  0.79717649  0.58599118  0.96607583    -0.32500
C476        C  0.81385826  0.59170052  0.92891157    -0.10000
C477        C  0.82479647  0.56839913  0.90987415    -0.28800
N478        N  0.79164168  0.47898665  0.95017605    -0.45400
C479        C  0.76961864  0.47384188  0.97693613    -0.04700
C480        C  0.76261059  0.49624994  0.00399868    -0.22100
H481        H  0.76502719  0.55257577  0.02227483     0.19700
H482        H  0.82726976  0.51157176  0.90126857     0.18500
H483        H  0.83782523  0.56661207  0.87893419     0.14800
H484        H  0.74415804  0.49914403  0.02358351     0.14700
H485        H  0.78540302  0.59943560  0.98532172     0.32800
H486        H  0.79917879  0.46694777  0.92262536     0.35600
C487        C  0.02089349  0.27147087  0.00658102     0.21200
C488        C  0.04868876  0.27185231  0.01460049    -0.38700
C489        C  0.06322684  0.29120292  0.98890616     0.20200
C490        C  0.05108153  0.30859358  0.95690489     0.22800
C491        C  0.02323670  0.30836881  0.94918998    -0.39200
C492        C  0.00861729  0.28931195  0.97559062     0.21600
N493        N  0.00339542  0.25261357  0.02100494    -0.32500
C494        C  0.97967988  0.25852684  0.99961076    -0.10000
C495        C  0.98216958  0.28145119  0.97131951    -0.28800
N496        N  0.06960730  0.32261839  0.93228431    -0.45400
C497        C  0.09373405  0.31409936  0.94870318    -0.04700
C498        C  0.09049884  0.29481338  0.98462162    -0.22100
H499        H  0.05846892  0.25718342  0.03716575     0.19700
H500        H  0.01381237  0.32110672  0.92261106     0.18500
H501        H  0.96759085  0.28911215  0.94589756     0.14800
H502        H  0.10602752  0.28341237  0.00236286     0.14700
H503        H  0.00794532  0.23525337  0.04013536     0.32800
H504        H  0.06607251  0.33605344  0.90417769     0.35600
C505        C  0.89187197  0.28685352  0.18333195     0.21200
C506        C  0.91646395  0.28107113  0.16120834    -0.38700
C507        C  0.91500035  0.27306862  0.11245304     0.20200
C508        C  0.89097957  0.27173249  0.08742659     0.22800
C509        C  0.86646543  0.27717836  0.10964052    -0.39200
C510        C  0.86785965  0.28436214  0.15853708     0.21600
N511        N  0.88760663  0.29431198  0.22949795    -0.32500
C512        C  0.86063269  0.29592460  0.23411990    -0.10000
C513        C  0.84773461  0.28978090  0.19065179    -0.28800
N514        N  0.89460507  0.26230490  0.04253404    -0.45400
C515        C  0.92096161  0.25638512  0.03920627    -0.04700
C516        C  0.93445976  0.26333209  0.08195349    -0.22100
H517        H  0.93523372  0.28195922  0.18086081     0.19700
H518        H  0.84757434  0.27508990  0.09063097     0.18500
H519        H  0.82643658  0.28987836  0.18327209     0.14800
H520        H  0.95519409  0.25968633  0.09106384     0.14700
H521        H  0.90205389  0.29796763  0.25613811     0.32800
H522        H  0.87960138  0.25964113  0.01642053     0.35600
C523        C  0.74870803  0.40837424  0.10470058     0.21200
C524        C  0.74027802  0.39629679  0.14770987    -0.38700
C525        C  0.76057438  0.39018049  0.18092939     0.20200
C526        C  0.78723656  0.39600636  0.17225764     0.22800
C527        C  0.79570805  0.40814615  0.12920590    -0.39200
C528        C  0.77540908  0.41401770  0.09571637     0.21600
N529        N  0.73345564  0.41441348  0.06622908    -0.32500
C530        C  0.75062046  0.42367640  0.03243063    -0.10000
C531        C  0.77694094  0.42405653  0.04942444    -0.28800
N532        N  0.80275176  0.38638580  0.20789705    -0.45400
C533        C  0.78589608  0.37400263  0.23906267    -0.04700
C534        C  0.75940794  0.37606550  0.22357131    -0.22100
H535        H  0.71954097  0.39108042  0.15401234     0.19700
H536        H  0.81663091  0.41185710  0.12162849     0.18500
H537        H  0.79477405  0.42983870  0.02995323     0.14800
H538        H  0.74185298  0.36722930  0.23995066     0.14700
H539        H  0.71277464  0.41188368  0.06276328     0.32800
H540        H  0.82364857  0.38675200  0.20936628     0.35600
C541        C  0.77060133  0.48569214  0.49005474     0.21200
C542        C  0.77069633  0.45912185  0.50644676    -0.38700
C543        C  0.79061331  0.44261730  0.48696478     0.20200
C544        C  0.80910180  0.45197328  0.45385503     0.22800
C545        C  0.80927893  0.47852994  0.43816722    -0.39200
C546        C  0.78935017  0.49491291  0.45730205     0.21600
N547        N  0.75082235  0.50361884  0.49532273    -0.32500
C548        C  0.75697910  0.52414148  0.46539696    -0.10000
C549        C  0.78097627  0.51950243  0.44163625    -0.28800
N550        N  0.82275769  0.43169893  0.43421841    -0.45400
C551        C  0.81280382  0.40914649  0.45437534    -0.04700
C552        C  0.79311442  0.41518457  0.48831739    -0.22100
H553        H  0.75503464  0.45129778  0.52938753     0.19700
H554        H  0.82248392  0.48533355  0.40979820     0.18500
H555        H  0.78923928  0.53094506  0.41204871     0.14800
H556        H  0.78028267  0.40124087  0.50720584     0.14700
H557        H  0.73281294  0.50072635  0.51363681     0.32800
H558        H  0.83636498  0.43298137  0.40577657     0.35600
C559        C  0.93406889  0.30423744  0.47840116     0.21200
C560        C  0.96214257  0.30580397  0.47706169    -0.38700
C561        C  0.97588089  0.28307185  0.49312269     0.20200
C562        C  0.96257016  0.26040309  0.50889974     0.22800
C563        C  0.93454478  0.25911857  0.51144417    -0.39200
C564        C  0.92085733  0.28189701  0.49576447     0.21600
N565        N  0.91654414  0.32157327  0.45909480    -0.32500
C566        C  0.89199409  0.31034077  0.46481513    -0.10000
C567        C  0.89389112  0.28568994  0.48791826    -0.28800
N568        N  0.97954144  0.23979716  0.51246263    -0.45400
C569        C  0.00382055  0.24930802  0.49901259    -0.04700
C570        C  0.00245023  0.27637913  0.48770817    -0.22100
H571        H  0.97248239  0.32270311  0.46133890     0.19700
H572        H  0.92410116  0.24098990  0.52151788     0.18500
H573        H  0.87789275  0.27150333  0.49444359     0.14800
H574        H  0.01788850  0.28839379  0.47095318     0.14700
H575        H  0.92109341  0.33933305  0.44111946     0.32800
H576        H  0.97440141  0.21984982  0.51856651     0.35600
C577        C  0.80488919  0.14654343  0.44103430     0.21200
C578        C  0.81869228  0.16620460  0.41487670    -0.38700
C579        C  0.81079514  0.19255749  0.42363156     0.20200
C580        C  0.79120188  0.19882244  0.45692608     0.22800
C581        C  0.77706813  0.17914076  0.48225004    -0.39200
C582        C  0.78449870  0.15280021  0.47255601     0.21600
N583        N  0.80698647  0.12000535  0.43616220    -0.32500
C584        C  0.78746838  0.10917603  0.46405201    -0.10000
C585        C  0.77283042  0.12920428  0.48679502    -0.28800
N586        N  0.78649340  0.22512803  0.45714245    -0.45400
C587        C  0.80255034  0.23554596  0.42267088    -0.04700
C588        C  0.81812272  0.21595316  0.40103933    -0.22100
H589        H  0.83363616  0.16126914  0.38820048     0.19700
H590        H  0.76075157  0.18393586  0.50624982     0.18500
H591        H  0.75472645  0.12719741  0.50770142     0.14800
H592        H  0.83223010  0.21840831  0.37182147     0.14700
H593        H  0.82009483  0.10998888  0.41325829     0.32800
H594        H  0.77214965  0.23517889  0.47745996     0.35600
C595        C  0.63313061  0.31578562  0.46935100     0.21200
C596        C  0.65688352  0.33024673  0.47885188    -0.38700
C597        C  0.67983321  0.32164798  0.45399972     0.20200
C598        C  0.67894405  0.30052684  0.42175604     0.22800
C599        C  0.65540595  0.28581406  0.41299775    -0.39200
C600        C  0.63266873  0.29413941  0.43823032     0.21600
N601        N  0.60853522  0.32009531  0.48752388    -0.32500
C602        C  0.59262220  0.30058591  0.46868559    -0.10000
C603        C  0.60691170  0.28415001  0.43767258    -0.28800
N604        N  0.70303214  0.29669445  0.40162106    -0.45400
C605        C  0.71971611  0.31524076  0.42135499    -0.04700
C606        C  0.70598910  0.33110417  0.45460011    -0.22100
H607        H  0.65743430  0.34699760  0.50357145     0.19700
H608        H  0.65481470  0.26912443  0.38813668     0.18500
H609        H  0.59931802  0.26735738  0.41701289     0.14800
H610        H  0.71400010  0.34741597  0.47599930     0.14700
H611        H  0.60292484  0.33521089  0.51137052     0.32800
H612        H  0.70792477  0.28204374  0.37632873     0.35600
C613        C  0.84943718  0.20600346  0.97422957     0.21200
C614        C  0.82474544  0.19717607  0.99289189    -0.38700
C615        C  0.80391598  0.19375701  0.95886897     0.20200
C616        C  0.80756189  0.19879970  0.91018017     0.22800
C617        C  0.83211473  0.20751123  0.89160712    -0.39200
C618        C  0.85278023  0.21093429  0.92544209     0.21600
N619        N  0.87258082  0.21026821  0.99847459    -0.32500
C620        C  0.89057825  0.21817122  0.96470723    -0.10000
C621        C  0.87893725  0.21860495  0.91883822    -0.28800
N622        N  0.78459312  0.19551557  0.88554535    -0.45400
C623        C  0.76591414  0.18841637  0.91848552    -0.04700
C624        C  0.77724893  0.18683616  0.96473983    -0.22100
H625        H  0.82190534  0.19346113  0.03103520     0.19700
H626        H  0.83486612  0.21155001  0.85353685     0.18500
H627        H  0.88862497  0.22317182  0.88492476     0.14800
H628        H  0.76705992  0.18277414  0.99836744     0.14700
H629        H  0.87614413  0.20721461  0.03527627     0.32800
H630        H  0.78156904  0.19902254  0.84871793     0.35600
C631        C  0.69608996  0.30304073  0.96241863     0.21200
C632        C  0.71144966  0.32148675  0.98918729    -0.38700
C633        C  0.70818115  0.34839026  0.97648657     0.20200
C634        C  0.69035875  0.35622242  0.94092877     0.22800
C635        C  0.67538609  0.33781227  0.91366795    -0.39200
C636        C  0.67926410  0.31095695  0.92526395     0.21600
N637        N  0.69787171  0.27632136  0.96364319    -0.32500
C638        C  0.68284334  0.26732272  0.92602437    -0.10000
C639        C  0.67083556  0.28829207  0.90131378    -0.28800
N640        N  0.69271084  0.38240374  0.93233584    -0.45400
C641        C  0.71276044  0.39151233  0.96132774    -0.04700
C642        C  0.72284980  0.37072372  0.98971584    -0.22100
H643        H  0.72603293  0.31522832  0.01585340     0.19700
H644        H  0.66294019  0.34388999  0.88354775     0.18500
H645        H  0.65887996  0.28717745  0.86862913     0.14800
H646        H  0.74019905  0.37101265  0.01320818     0.14700
H647        H  0.71025244  0.26501893  0.98612222     0.32800
H648        H  0.68237690  0.39297723  0.90572839     0.35600
C649        C  0.73426336  0.11748710  0.67850796     0.21200
C650        C  0.75652163  0.11437455  0.64844325    -0.38700
C651        C  0.75314908  0.09665994  0.60959426     0.20200
C652        C  0.72922679  0.08341444  0.60064136     0.22800
C653        C  0.70710540  0.08605190  0.63141899    -0.39200
C654        C  0.71065566  0.10346655  0.67083961     0.21600
N655        N  0.73184625  0.13453641  0.71576658    -0.32500
C656        C  0.70662152  0.13113386  0.73246727    -0.10000
C657        C  0.69285664  0.11174829  0.70560541    -0.28800
N658        N  0.73019978  0.07023441  0.55824993    -0.45400
C659        C  0.75493666  0.07527408  0.54023470    -0.04700
C660        C  0.77009057  0.09093013  0.57203020    -0.22100
H661        H  0.77483338  0.12565472  0.65388862     0.19700
H662        H  0.68824215  0.07602724  0.62427954     0.18500
H663        H  0.67219675  0.10553608  0.70951482     0.14800
H664        H  0.79020887  0.09847643  0.56692897     0.14700
H665        H  0.74624553  0.14811389  0.72828531     0.32800
H666        H  0.71446980  0.05991772  0.54154657     0.35600
C667        C  0.59692490  0.21880422  0.67345696     0.21200
C668        C  0.57719159  0.21541246  0.63727792    -0.38700
C669        C  0.57526440  0.23614679  0.60310421     0.20200
C670        C  0.59181085  0.25835182  0.60511647     0.22800
C671        C  0.61145197  0.26169607  0.64094619    -0.39200
C672        C  0.61337134  0.24110531  0.67484333     0.21600
N673        N  0.60345148  0.20181756  0.70934673    -0.32500
C674        C  0.62435882  0.21337250  0.73325756    -0.10000
C675        C  0.63096387  0.23793435  0.71276670    -0.28800
N676        N  0.58587625  0.27550886  0.56967156    -0.45400
C677        C  0.56543563  0.26434050  0.54420576    -0.04700
C678        C  0.55809722  0.23967253  0.56411105    -0.22100
H679        H  0.56433395  0.19796809  0.63583665     0.19700
H680        H  0.62441988  0.27907159  0.64217591     0.18500
H681        H  0.64708708  0.25129371  0.72325970     0.14800
H682        H  0.54242325  0.22617410  0.55238332     0.14700
H683        H  0.59496320  0.18308125  0.71593077     0.32800
H684        H  0.59452095  0.29430205  0.56493787     0.35600
C685        C  0.63691770  0.70052070  0.96045000     0.21200
C686        C  0.66130550  0.68946140  0.97653871    -0.38700
C687        C  0.68252169  0.68987098  0.94307311     0.20200
C688        C  0.67953072  0.70067107  0.89740344     0.22800
C689        C  0.65522393  0.71144093  0.88124653    -0.39200
C690        C  0.63410046  0.71083215  0.91436052     0.21600
N691        N  0.61358132  0.70216898  0.98465092    -0.32500
C692        C  0.59587795  0.71345823  0.95346908    -0.10000
C693        C  0.60794306  0.71894632  0.90926896    -0.28800
N694        N  0.70261888  0.69962463  0.87289408    -0.45400
C695        C  0.72075330  0.68797638  0.90266736    -0.04700
C696        C  0.70889754  0.68145934  0.94693372    -0.22100
H697        H  0.66359614  0.68118912  0.01241010     0.19700
H698        H  0.65292514  0.71971020  0.84536349     0.18500
H699        H  0.59860384  0.72725001  0.87732248     0.14800
H700        H  0.71846766  0.67263943  0.97818134     0.14700
H701        H  0.60969319  0.69537497  0.01958392     0.32800
H702        H  0.70599177  0.70704038  0.83818376     0.35600
C703        C  0.70017352  0.00574633  0.94923103     0.21200
C704        C  0.68067289  0.02128476  0.92628410    -0.38700
C705        C  0.67948905  0.04803114  0.94070580     0.20200
C706        C  0.69625496  0.05862676  0.97588544     0.22800
C707        C  0.71565631  0.04293404  0.99935668    -0.39200
C708        C  0.71706102  0.01609393  0.98450349     0.21600
N709        N  0.70852487  0.98163238  0.93490884    -0.32500
C710        C  0.73101691  0.97644989  0.96060494    -0.10000
C711        C  0.73679997  0.99730843  0.99257804    -0.28800
N712        N  0.69386163  0.08540432  0.97759701    -0.45400
C713        C  0.67585760  0.09181508  0.94260218    -0.04700
C714        C  0.66619047  0.06894555  0.91949228    -0.22100
H715        H  0.66881629  0.01366287  0.89639638     0.19700
H716        H  0.73003270  0.05151498  0.02440409     0.18500
H717        H  0.75491090  0.99999951  0.01369506     0.14800
H718        H  0.65302567  0.06795925  0.88833731     0.14700
H719        H  0.70117677  0.97071196  0.90545171     0.32800
H720        H  0.70542497  0.09861535  0.99830738     0.35600
C721        C  0.78527382  0.85083636  0.94824913     0.21200
C722        C  0.77885297  0.82472189  0.96256989    -0.38700
C723        C  0.79166964  0.80424267  0.93713621     0.20200
C724        C  0.80901911  0.80935315  0.89937731     0.22800
C725        C  0.81589518  0.83547476  0.88577288    -0.39200
C726        C  0.80355368  0.85594509  0.91206354     0.21600
N727        N  0.77352583  0.87351892  0.96288302    -0.32500
C728        C  0.78483468  0.89346976  0.93668519    -0.10000
C729        C  0.80383634  0.88309306  0.90487030    -0.28800
N730        N  0.81602549  0.78652008  0.87728967    -0.45400
C731        C  0.80339490  0.76675112  0.90174324    -0.04700
C732        C  0.78831490  0.77697939  0.93968138    -0.22100
H733        H  0.76414899  0.82062623  0.99019818     0.19700
H734        H  0.82898131  0.83956732  0.85560218     0.18500
H735        H  0.81497071  0.89370821  0.87744430     0.14800
H736        H  0.77522862  0.76605002  0.96372390     0.14700
H737        H  0.75709204  0.87463179  0.98582470     0.32800
H738        H  0.82800704  0.78453783  0.84669799     0.35600
C739        C  0.80957468  0.82059335  0.44297691     0.21200
C740        C  0.82906523  0.81826839  0.47975987    -0.38700
C741        C  0.85515110  0.81220397  0.46423966     0.20200
C742        C  0.86113501  0.80874612  0.41587484     0.22800
C743        C  0.84182249  0.81126479  0.37934147    -0.39200
C744        C  0.81593247  0.81726483  0.39474844     0.21600
N745        N  0.78298813  0.82405260  0.44801362    -0.32500
C746        C  0.77251103  0.82255637  0.40264029    -0.10000
C747        C  0.79253806  0.81868382  0.36858981    -0.28800
N748        N  0.88688867  0.80212424  0.41025425    -0.45400
C749        C  0.89762264  0.80100784  0.45523068    -0.04700
C750        C  0.87855408  0.80767690  0.49001378    -0.22100
H751        H  0.82415791  0.82030797  0.51762063     0.19700
H752        H  0.84646953  0.80800875  0.34164571     0.18500
H753        H  0.79010641  0.81573027  0.33006006     0.14800
H754        H  0.88136979  0.80876657  0.52876354     0.14700
H755        H  0.77248595  0.82574999  0.48039381     0.32800
H756        H  0.89657694  0.79820470  0.37767080     0.35600
C757        C  0.68739515  0.69406492  0.39369954     0.21200
C758        C  0.67977458  0.66812088  0.37994011    -0.38700
C759        C  0.69232991  0.64733071  0.40517604     0.20200
C760        C  0.71140467  0.65197183  0.44061726     0.22800
C761        C  0.71868393  0.67790804  0.45497491    -0.39200
C762        C  0.70569831  0.69870869  0.43055890     0.21600
N763        N  0.67964734  0.71718233  0.37344297    -0.32500
C764        C  0.69270001  0.73664375  0.39835398    -0.10000
C765        C  0.70895612  0.72594086  0.43444498    -0.28800
N766        N  0.72210911  0.62890948  0.45586408    -0.45400
C767        C  0.70932182  0.60922800  0.43093480    -0.04700
C768        C  0.69061473  0.62012885  0.39888843    -0.22100
H769        H  0.66563471  0.66438484  0.35090736     0.19700
H770        H  0.73377127  0.68162882  0.48242260     0.18500
H771        H  0.72236423  0.73662361  0.45859107     0.14800
H772        H  0.67819561  0.60965582  0.37283290     0.14700
H773        H  0.66660881  0.71958623  0.34417448     0.32800
H774        H  0.73845522  0.62715292  0.47953343     0.35600
C775        C  0.72615584  0.91803744  0.07578529     0.21200
C776        C  0.70456766  0.91534609  0.10778375    -0.38700
C777        C  0.70988154  0.90131063  0.15063178     0.20200
C778        C  0.73472598  0.89046786  0.16042796     0.22800
C779        C  0.75640908  0.89343908  0.12870369    -0.39200
C780        C  0.75120126  0.90778181  0.08617707     0.21600
N781        N  0.72577637  0.92909752  0.03157467    -0.32500
C782        C  0.75076128  0.92585622  0.01368630    -0.10000
C783        C  0.76738765  0.91309949  0.04702708    -0.28800
N784        N  0.73402775  0.87608425  0.20137987    -0.45400
C785        C  0.70862729  0.87787550  0.21814927    -0.04700
C786        C  0.69301704  0.89367733  0.18759932    -0.22100
H787        H  0.68488744  0.92300522  0.09933262     0.19700
H788        H  0.77571735  0.88459149  0.13598154     0.18500
H789        H  0.78814312  0.90763471  0.04252552     0.14800
H790        H  0.67179962  0.89757564  0.19035730     0.14700
H791        H  0.70920733  0.93728969  0.01404849     0.32800
H792        H  0.74961462  0.86481465  0.21596823     0.35600
C793        C  0.57479863  0.76675269  0.10025648     0.21200
C794        C  0.57285696  0.77426567  0.14921145    -0.38700
C795        C  0.59690967  0.78257110  0.17153183     0.20200
C796        C  0.62097999  0.78269453  0.14702992     0.22800
C797        C  0.62282067  0.77557288  0.09818702    -0.39200
C798        C  0.59882756  0.76781317  0.07577821     0.21600
N799        N  0.55542815  0.75646372  0.07165242    -0.32500
C800        C  0.56733502  0.75087445  0.02877222    -0.10000
C801        C  0.59430245  0.75830475  0.02981287    -0.28800
N802        N  0.64103798  0.79082627  0.17598679    -0.45400
C803        C  0.62981745  0.79659071  0.21917664    -0.04700
C804        C  0.60221868  0.79174286  0.21792699    -0.22100
H805        H  0.55409875  0.77349428  0.16853895     0.19700
H806        H  0.64168394  0.77571284  0.07914645     0.18500
H807        H  0.60910786  0.75614226  0.00182661     0.14800
H808        H  0.58803048  0.79464215  0.24683649     0.14700
H809        H  0.53587298  0.75183269  0.08192307     0.32800
H810        H  0.66112056  0.79313975  0.16645638     0.35600
C811        C  0.70407477  0.94057457  0.48049591     0.21200
C812        C  0.72410474  0.95433943  0.50637542    -0.38700
C813        C  0.72518511  0.98204178  0.49913518     0.20200
C814        C  0.70742582  0.99502040  0.46874345     0.22800
C815        C  0.68746744  0.98126399  0.44288030    -0.39200
C816        C  0.68660998  0.95360454  0.44965604     0.21600
N817        N  0.70143701  0.91399344  0.47571181    -0.32500
C818        C  0.68267112  0.91014868  0.44074878    -0.10000
C819        C  0.67270439  0.93437884  0.42413323    -0.28800
N820        N  0.71547082  0.02021880  0.46105932    -0.45400
C821        C  0.73869977  0.02331795  0.48588007    -0.04700
C822        C  0.74524569  0.00004477  0.51064664    -0.22100
H823        H  0.73904951  0.94398862  0.52757296     0.19700
H824        H  0.67493209  0.99111185  0.41642255     0.18500
H825        H  0.65871643  0.93751975  0.39471815     0.14800
H826        H  0.76401657  0.99568578  0.52857835     0.14700
H827        H  0.71324349  0.89944909  0.49223192     0.32800
H828        H  0.70759503  0.03335869  0.43545817     0.35600
C829        C  0.20886495  0.87082941  0.41335982     0.21200
C830        C  0.20926531  0.85191116  0.37579762    -0.38700
C831        C  0.19960908  0.82635515  0.38751012     0.20200
C832        C  0.19022007  0.82022414  0.43313045     0.22800
C833        C  0.18993175  0.83913227  0.47072318    -0.39200
C834        C  0.19966557  0.86465952  0.45909578     0.21600
N835        N  0.21660798  0.89651221  0.41123058    -0.32500
C836        C  0.21266907  0.90677463  0.45597316    -0.10000
C837        C  0.20190374  0.88755960  0.48687154    -0.28800
N838        N  0.18321719  0.79432121  0.43574933    -0.45400
C839        C  0.18838890  0.78367059  0.39169271    -0.04700
C840        C  0.19849280  0.80315157  0.36046077    -0.22100
H841        H  0.21676673  0.85668756  0.34020643     0.19700
H842        H  0.18284926  0.83424341  0.50653542     0.18500
H843        H  0.19599391  0.89017075  0.52413029     0.14800
H844        H  0.20534919  0.80041790  0.32376231     0.14700
H845        H  0.22386376  0.90662909  0.38098565     0.32800
H846        H  0.17651077  0.78421770  0.46641153     0.35600
C847        C  0.52266011  0.78287155  0.49850132     0.21200
C848        C  0.55034969  0.77974957  0.50525737    -0.38700
C849        C  0.56670194  0.79960146  0.48492805     0.20200
C850        C  0.55624456  0.82103385  0.45976999     0.22800
C851        C  0.52855577  0.82448627  0.45392313    -0.39200
C852        C  0.51220770  0.80457890  0.47409738     0.21600
N853        N  0.50370568  0.76404071  0.50486655    -0.32500
C854        C  0.48108472  0.77363957  0.48421187    -0.10000
C855        C  0.48557978  0.79904171  0.46529275    -0.28800
N856        N  0.57578684  0.83450295  0.43690971    -0.45400
C857        C  0.59884002  0.82149224  0.44726343    -0.04700
C858        C  0.59402840  0.79994796  0.47798783    -0.22100
H859        H  0.55864666  0.76194386  0.52141440     0.19700
H860        H  0.52043196  0.84021705  0.43155887     0.18500
H861        H  0.47234170  0.81004000  0.44159974     0.14800
H862        H  0.60823311  0.78506640  0.48980138     0.14700
H863        H  0.50684613  0.74448515  0.51653887     0.15200
H864        H  0.57334258  0.85045613  0.41306244     0.35600
C865        C  0.31129749  0.69978776  0.41039835     0.21200
C866        C  0.33769550  0.69235955  0.40102277    -0.38700
C867        C  0.35742838  0.70574479  0.42796894     0.20200
C868        C  0.35157397  0.72546099  0.46121902     0.22800
C869        C  0.32498851  0.73251416  0.47151446    -0.39200
C870        C  0.30511274  0.71868256  0.44511633     0.21600
N871        N  0.28918682  0.69137355  0.38692614    -0.32500
C872        C  0.26866591  0.70455877  0.40754463    -0.10000
C873        C  0.27769739  0.72159157  0.44423669    -0.28800
N874        N  0.37423838  0.73739366  0.47722499    -0.45400
C875        C  0.39463183  0.72485954  0.45427027    -0.04700
C876        C  0.38470394  0.70485272  0.42379647    -0.22100
H877        H  0.34260146  0.67792922  0.37336539     0.19700
H878        H  0.32016433  0.74819898  0.49689017     0.18500
H879        H  0.26589001  0.73520993  0.46562621     0.14800
H880        H  0.39582495  0.69248516  0.39901882     0.14700
H881        H  0.28813012  0.67778546  0.35830904     0.32800
H882        H  0.37542487  0.75428384  0.49926655     0.35600
C883        C  0.18599682  0.78885986  0.89139258     0.21200
C884        C  0.16431106  0.77131017  0.88389384    -0.38700
C885        C  0.14000972  0.77885921  0.90498113     0.20200
C886        C  0.13737373  0.80240246  0.93068150     0.22800
C887        C  0.15923132  0.81965547  0.93913871    -0.39200
C888        C  0.18370801  0.81182455  0.91885763     0.21600
N889        N  0.21117323  0.78607526  0.87535755    -0.32500
C890        C  0.22528822  0.80707191  0.89346579    -0.10000
C891        C  0.20885506  0.82353038  0.92111292    -0.28800
N892        N  0.11191016  0.80560303  0.94508218    -0.45400
C893        C  0.09848019  0.78349047  0.92996547    -0.04700
C894        C  0.11525325  0.76646440  0.90442164    -0.22100
H895        H  0.16622968  0.75310013  0.86315211     0.19700
H896        H  0.15732232  0.83781530  0.96001805     0.18500
H897        H  0.21457420  0.84147739  0.94047100     0.14800
H898        H  0.10987999  0.74783462  0.88695905     0.14700
H899        H  0.21856012  0.77031555  0.85469855     0.32800
H900        H  0.10408939  0.82183550  0.96392551     0.35600
C901        C  0.30964523  0.68856013  0.91619281     0.21200
C902        C  0.31772653  0.66230480  0.90722476    -0.38700
C903        C  0.30332412  0.64238151  0.93151196     0.20200
C904        C  0.28189656  0.64799904  0.96117341     0.22800
C905        C  0.27390719  0.67433533  0.97048569    -0.39200
C906        C  0.28895117  0.69436722  0.94751698     0.21600
N907        N  0.31965464  0.71096334  0.89647483    -0.32500
C908        C  0.30572142  0.73122413  0.91640917    -0.10000
C909        C  0.28644787  0.72172875  0.94849107    -0.28800
N910        N  0.27002590  0.62531692  0.97623889    -0.45400
C911        C  0.28436468  0.60506642  0.95671555    -0.04700
C912        C  0.30536742  0.61511231  0.92887990    -0.22100
H913        H  0.33382228  0.65769347  0.88262870     0.19700
H914        H  0.25709660  0.67888307  0.99351270     0.18500
H915        H  0.27178973  0.73324581  0.96807005     0.14800
H916        H  0.31939256  0.60395874  0.90723418     0.14700
H917        H  0.33481154  0.71240216  0.87074956     0.32800
H918        H  0.25223537  0.62395210  0.99564563     0.35600
C919        C  0.28040279  0.87917430  0.65363095     0.21200
C920        C  0.27390744  0.87777979  0.60433162    -0.38700
C921        C  0.26594728  0.90179193  0.58290579     0.20200
C922        C  0.26424482  0.92536953  0.60873837     0.22800
C923        C  0.27148745  0.92694392  0.65787462    -0.39200
C924        C  0.27986463  0.90293103  0.67919247     0.21600
N925        N  0.28763422  0.85890376  0.68244004    -0.32500
C926        C  0.29231998  0.86980014  0.72651524    -0.10000
C927        C  0.28798056  0.89731071  0.72591200    -0.28800
N928        N  0.25374384  0.94475062  0.58106184    -0.45400
C929        C  0.24881406  0.93340042  0.53726234    -0.04700
C930        C  0.25674392  0.90673694  0.53682211    -0.22100
H931        H  0.27436397  0.85919491  0.58438337     0.19700
H932        H  0.27018988  0.94535484  0.67820487     0.18500
H933        H  0.29024619  0.91120105  0.75565955     0.14800
H934        H  0.25533500  0.89248964  0.50758267     0.14700
H935        H  0.28988212  0.83892996  0.67247621     0.32800
H936        H  0.24879555  0.96399403  0.59226913     0.35600
C937        C  0.39259963  0.76992908  0.68100538     0.21200
C938        C  0.39543368  0.74903578  0.64756202    -0.38700
C939        C  0.41018147  0.75505894  0.60595969     0.20200
C940        C  0.42139407  0.78002579  0.59825306     0.22800
C941        C  0.41888827  0.80084134  0.63209302    -0.39200
C942        C  0.40407247  0.79480710  0.67380812     0.21600
N943        N  0.37690180  0.77010058  0.72029100    -0.32500
C944        C  0.37828656  0.79521070  0.73859581    -0.10000
C945        C  0.39537581  0.81114113  0.71085918    -0.28800
N946        N  0.43244907  0.78135368  0.55405736    -0.45400
C947        C  0.42792531  0.75714039  0.53347594    -0.04700
C948        C  0.41451272  0.74004121  0.56497292    -0.22100
H949        H  0.38575254  0.72985723  0.65248492     0.19700
H950        H  0.42685518  0.82062089  0.62541795     0.18500
H951        H  0.39896954  0.83236348  0.71467793     0.14800
H952        H  0.40807778  0.71971203  0.55821046     0.14700
H953        H  0.36465032  0.75450089  0.73219538     0.32800
H954        H  0.44138239  0.79804142  0.53820603     0.35600
C955        C  0.42598144  0.79082814  0.99705944     0.21200
C956        C  0.43815052  0.76805653  0.01680801    -0.38700
C957        C  0.46589529  0.76582063  0.00988068     0.20200
C958        C  0.48063259  0.78513304  0.98598699     0.22800
C959        C  0.46843334  0.80786451  0.96593449    -0.39200
C960        C  0.44055586  0.80982593  0.97202459     0.21600
N961        N  0.39952638  0.79520276  0.99222210    -0.32500
C962        C  0.39702405  0.81664989  0.96270364    -0.10000
C963        C  0.42227463  0.82658882  0.95006962    -0.28800
N964        N  0.50584671  0.77667591  0.97859328    -0.45400
C965        C  0.50711264  0.75160943  0.99693804    -0.04700
C966        C  0.48253077  0.74421773  0.01679585    -0.22100
H967        H  0.42651925  0.75222676  0.03321263     0.19700
H968        H  0.47952306  0.82197129  0.94411077     0.18500
H969        H  0.42664226  0.84232613  0.92449377     0.14800
H970        H  0.47681791  0.72467198  0.02992308     0.14700
H971        H  0.38411915  0.78275817  0.00431943     0.32800
H972        H  0.52040698  0.78615481  0.95767572     0.35600
C973        C  0.50539702  0.20541181  0.97396467     0.21200
C974        C  0.51992213  0.18548043  0.95036155    -0.38700
C975        C  0.54769499  0.18646677  0.95685038     0.20200
C976        C  0.56020231  0.20579425  0.98487941     0.22800
C977        C  0.54567561  0.22596353  0.00810841    -0.39200
C978        C  0.51778325  0.22500986  0.00158209     0.21600
N979        N  0.47966375  0.21147765  0.96607363    -0.32500
C980        C  0.47556897  0.23535762  0.98768845    -0.10000
C981        C  0.49878656  0.24417430  0.01108191    -0.28800
N982        N  0.58696909  0.20382559  0.98144570    -0.45400
C983        C  0.59140507  0.18332907  0.95049589    -0.04700
C984        C  0.56738521  0.17198956  0.93458960    -0.22100
H985        H  0.51042530  0.17127348  0.92614729     0.19700
H986        H  0.55548909  0.24215758  0.02727997     0.18500
H987        H  0.50247072  0.26387052  0.02588513     0.14800
H988        H  0.56468915  0.15627738  0.90808773     0.14700
H989        H  0.46679535  0.20196562  0.94153913     0.32800
H990        H  0.60124565  0.21667740  0.99666585     0.35600
C991        C  0.35682723  0.30573973  0.92745554     0.21200
C992        C  0.33862500  0.31804852  0.89594427    -0.38700
C993        C  0.31154177  0.31322268  0.90549271     0.20200
C994        C  0.30330887  0.29791318  0.94433009     0.22800
C995        C  0.32153834  0.28494965  0.97493707    -0.39200
C996        C  0.34863457  0.28923760  0.96457529     0.21600
N997        N  0.38348570  0.30532476  0.92327004    -0.32500
C998        C  0.39253307  0.28775782  0.95680699    -0.10000
C999        C  0.37118134  0.27722271  0.98321504    -0.28800
N1000       N  0.27654778  0.29599743  0.94518647    -0.45400
C1001       C  0.26770347  0.30952238  0.90591238    -0.04700
C1002       C  0.28892288  0.32048476  0.88002303    -0.22100
H1003       H  0.34511238  0.32969337  0.86520079     0.19700
H1004       H  0.31508394  0.27176050  0.00359603     0.18500
H1005       H  0.37147942  0.26107286  0.00904460     0.14800
H1006       H  0.28794217  0.33182073  0.84681006     0.14700
H1007       H  0.39461382  0.31520845  0.89687195     0.32800
H1008       H  0.26502043  0.28513399  0.96974311     0.35600
C1009       C  0.28057318  0.98906465  0.98763280     0.21200
C1010       C  0.30210774  0.97662665  0.96427908    -0.38700
C1011       C  0.30229499  0.94860705  0.96575315     0.20200
C1012       C  0.28266990  0.93409787  0.98929633     0.22800
C1013       C  0.26099749  0.94647192  0.01211487    -0.39200
C1014       C  0.26065745  0.97445180  0.01018364     0.21600
N1015       N  0.27344480  0.01482211  0.98385570    -0.32500
C1016       C  0.24853856  0.01659816  0.00275776    -0.10000
C1017       C  0.24012395  0.99182478  0.02018772    -0.28800
N1018       N  0.28595763  0.90781692  0.98191476    -0.45400
C1019       C  0.30751651  0.90545715  0.95268828    -0.04700
C1020       C  0.31835946  0.93050937  0.94199881    -0.22100
H1021       H  0.31668776  0.98788138  0.94376913     0.19700
H1022       H  0.24467095  0.93506686  0.02747941     0.18500
H1023       H  0.22014881  0.98645167  0.03176768     0.14800
H1024       H  0.33487432  0.93494122  0.91811960     0.14700
H1025       H  0.28316589  0.02938791  0.96331849     0.32800
H1026       H  0.27328583  0.89249444  0.99357787     0.35600
C1027       C  0.19547298  0.18633218  0.89389411     0.21200
C1028       C  0.20272822  0.16128176  0.87580558    -0.38700
C1029       C  0.20505613  0.14090747  0.91017456     0.20200
C1030       C  0.20042648  0.14499256  0.95889352     0.22800
C1031       C  0.19301118  0.17006528  0.97698130    -0.39200
C1032       C  0.19072943  0.19053196  0.94255240     0.21600
N1033       N  0.19326366  0.20921138  0.86895604    -0.32500
C1034       C  0.18704588  0.22819557  0.90190846    -0.10000
C1035       C  0.18514468  0.21726077  0.94818081    -0.28800
N1036       N  0.20401743  0.12225930  0.98396421    -0.45400
C1037       C  0.21130072  0.10375463  0.95083949    -0.04700
C1038       C  0.21183734  0.11460011  0.90448345    -0.22100
H1039       H  0.20661874  0.15796986  0.83783554     0.19700
H1040       H  0.18961058  0.17347443  0.01507330     0.18500
H1041       H  0.18144891  0.22770626  0.98172030     0.14800
H1042       H  0.21634522  0.10443340  0.87098785     0.14700
H1043       H  0.19664020  0.21189499  0.83205695     0.32800
H1044       H  0.20110509  0.11937624  0.02093654     0.35600
C1045       C  0.17773793  0.20317449  0.39458807     0.21200
C1046       C  0.15247809  0.20958372  0.37545522    -0.38700
C1047       C  0.13163073  0.21167477  0.40909775     0.20200
C1048       C  0.13551443  0.20750236  0.45804691     0.22800
C1049       C  0.16075937  0.20095561  0.47714113    -0.39200
C1050       C  0.18168838  0.19905835  0.44353931     0.21600
N1051       N  0.20107625  0.20177535  0.37064711    -0.32500
C1052       C  0.22017352  0.19703021  0.40457262    -0.10000
C1053       C  0.20874072  0.19492202  0.45043959    -0.28800
N1054       N  0.11241723  0.21052238  0.48234673    -0.45400
C1055       C  0.09375359  0.21702509  0.44866030    -0.04700
C1056       C  0.10497485  0.21761704  0.40254493    -0.22100
H1057       H  0.14937112  0.21312471  0.33726676     0.19700
H1058       H  0.16397737  0.19803313  0.51546498     0.18500
H1059       H  0.21902188  0.19215455  0.48457136     0.14800
H1060       H  0.09480721  0.22145083  0.36864262     0.14700
H1061       H  0.20399545  0.20515307  0.33380935     0.32800
H1062       H  0.10939610  0.20767288  0.51929621     0.35600
C1063       C  0.28855493  0.32304801  0.40685394     0.21200
C1064       C  0.27875525  0.34722766  0.38867675    -0.38700
C1065       C  0.27943105  0.36892986  0.42065564     0.20200
C1066       C  0.28894344  0.36681819  0.46753918     0.22800
C1067       C  0.29880980  0.34247950  0.48583351    -0.39200
C1068       C  0.29826496  0.32064181  0.45354586     0.21600
N1069       N  0.28961492  0.29958597  0.38346792    -0.32500
C1070       C  0.29997229  0.28174190  0.41515706    -0.10000
C1071       C  0.30575393  0.29418377  0.45942830    -0.28800
N1072       N  0.28785699  0.39070417  0.49012188    -0.45400
C1073       C  0.27765211  0.40798996  0.45711699    -0.04700
C1074       C  0.27231031  0.39512295  0.41343291    -0.22100
H1075       H  0.27124728  0.34904292  0.35207581     0.19700
H1076       H  0.30639480  0.34069471  0.52237864     0.18500
H1077       H  0.31367814  0.28500273  0.49180866     0.14800
H1078       H  0.26470604  0.40394570  0.38046878     0.14700
H1079       H  0.28300406  0.29580285  0.34822945     0.32800
H1080       H  0.29426014  0.39515594  0.52521739     0.35600
C1081       C  0.27387961  0.10853884  0.17899134     0.21200
C1082       C  0.26488436  0.08411159  0.15948696    -0.38700
C1083       C  0.25841611  0.08425021  0.10990348     0.20200
C1084       C  0.26108648  0.10687790  0.08167713     0.22800
C1085       C  0.26969604  0.13137370  0.10128648    -0.39200
C1086       C  0.27568679  0.13133434  0.15097975     0.21600
N1087       N  0.28122962  0.11373684  0.22509965    -0.32500
C1088       C  0.28721219  0.14018385  0.22654268    -0.10000
C1089       C  0.28387772  0.15177750  0.18105312    -0.28800
N1090       N  0.25313718  0.10199457  0.03589861    -0.45400
C1091       C  0.24458435  0.07621904  0.03519713    -0.04700
C1092       C  0.24787173  0.06443301  0.08061485    -0.22100
H1093       H  0.26275653  0.06636916  0.18141496     0.19700
H1094       H  0.27119408  0.14927772  0.07960520     0.18500
H1095       H  0.28742161  0.17239219  0.17119899     0.14800
H1096       H  0.24205189  0.04450072  0.09144435     0.14700
H1097       H  0.28180226  0.10026981  0.25384889     0.32800
H1098       H  0.25352470  0.11552714  0.00730201     0.35600
C1099       C  0.38335695  0.24420426  0.18180577     0.21200
C1100       C  0.38786479  0.26526701  0.14909501    -0.38700
C1101       C  0.40455784  0.25944300  0.10966464     0.20200
C1102       C  0.41568339  0.23445606  0.10324300     0.22800
C1103       C  0.41162177  0.21365050  0.13639574    -0.39200
C1104       C  0.39513950  0.21951260  0.17588015     0.21600
N1105       N  0.36636179  0.24376102  0.21949829    -0.32500
C1106       C  0.36748575  0.21866522  0.23795252    -0.10000
C1107       C  0.38543562  0.20308352  0.21181714    -0.28800
N1108       N  0.42813623  0.23288347  0.06038282    -0.45400
C1109       C  0.42484349  0.25698081  0.03902419    -0.04700
C1110       C  0.41087044  0.27438205  0.06923130    -0.22100
H1111       H  0.37814110  0.28439215  0.15287729     0.19700
H1112       H  0.41976276  0.19393547  0.13071510     0.18500
H1113       H  0.38952259  0.18205807  0.21653760     0.14800
H1114       H  0.40477431  0.29461583  0.06144940     0.14700
H1115       H  0.35395705  0.25925101  0.23075351     0.32800
H1116       H  0.43677607  0.21586934  0.04544872     0.35600
C1117       C  0.43717031  0.20106817  0.46750164     0.21200
C1118       C  0.46484518  0.20243032  0.45877753    -0.38700
C1119       C  0.47900748  0.22263162  0.48352487     0.20200
C1120       C  0.46650411  0.24027866  0.51445197     0.22800
C1121       C  0.43893002  0.23859257  0.52386726    -0.39200
C1122       C  0.42481110  0.21831798  0.49934423     0.21600
N1123       N  0.41881140  0.18657333  0.44287864    -0.32500
C1124       C  0.39457206  0.19472473  0.45895399    -0.10000
C1125       C  0.39759403  0.21410880  0.49493012    -0.28800
N1126       N  0.48312599  0.26054976  0.52625994    -0.45400
C1127       C  0.50647393  0.25579794  0.50310431    -0.04700
C1128       C  0.50465987  0.23218650  0.47639418    -0.22100
H1129       H  0.47431353  0.18997470  0.43193399     0.19700
H1130       H  0.42884090  0.25325026  0.54588449     0.18500
H1131       H  0.38192132  0.22547924  0.51206395     0.14800
H1132       H  0.51892116  0.22497816  0.45021124     0.14700
H1133       H  0.42249254  0.17334441  0.41451325     0.32800
H1134       H  0.47799881  0.27797982  0.54467705     0.35600
C1135       C  0.26421987  0.03456185  0.51940697     0.21200
C1136       C  0.26272505  0.06238291  0.52475940    -0.38700
C1137       C  0.28265606  0.07731989  0.50146274     0.20200
C1138       C  0.30263918  0.06547421  0.47464618     0.22800
C1139       C  0.30455402  0.03757911  0.47027595    -0.39200
C1140       C  0.28460438  0.02257769  0.49373453     0.21600
N1141       N  0.24458021  0.01686453  0.52861768    -0.32500
C1142       C  0.25225595  0.99343211  0.50867055    -0.10000
C1143       C  0.27746428  0.99609533  0.48762457    -0.28800
N1144       N  0.31652085  0.08404386  0.44988107    -0.45400
C1145       C  0.30528585  0.10786373  0.46102250    -0.04700
C1146       C  0.28437771  0.10444909  0.49371118    -0.22100
H1147       H  0.24594870  0.07181894  0.54233449     0.19700
H1148       H  0.31915863  0.02832762  0.44698179     0.18500
H1149       H  0.28702396  0.98189646  0.46389970     0.14800
H1150       H  0.27084413  0.11955740  0.50688593     0.14700
H1151       H  0.22556916  0.02131814  0.54179353     0.32800
H1152       H  0.33169617  0.08057892  0.42487813     0.35600
loop_ 
_geom_bond_atom_site_label_1 
_geom_bond_atom_site_label_2 
_geom_bond_distance 
_geom_bond_site_symmetry_2 
_ccdc_geom_bond_type 
Fe1          O17   2.081       .  S
Fe1           O7   2.087       .  S
Fe1          O14   2.083       .  S
Fe1           O6   2.092       .  S
Fe1          O12   1.981       .  S
Fe2           O5   2.081       .  S
Fe2           O9   2.069       .  S
Fe2          O13   2.077       .  S
Fe2          O18   2.083       .  S
Fe2          O12   1.979       .  S
Fe3          O21   2.080       .  S
Fe3           O8   2.068       .  S
Fe3          O15   2.070       .  S
Fe3           O4   2.075       .  S
Fe3          O12   1.971       .  S
O4           C11   1.272       .  A
O5           C19   1.274       .  A
O6           C11   1.275       .  A
O7           C10   1.271       .  A
O8           C20   1.267       .  A
O9           C22   1.268       .  A
C10          O15   1.268       .  A
C10        C1088   1.480       .  S
C11        C1106   1.484       .  S
O13          C16   1.273       .  A
O14          C16   1.274       .  A
C16        C1124   1.482       .  S
O17          C22   1.270       .  A
O18          C20   1.269       .  A
C19          O21   1.275       .  A
C19        C1052   1.482       .  S
C20        C1070   1.485       .  S
C22        C1145   1.481       .  S
N23          C27   1.364       .  A
N23          C24   1.361       .  A
N23        C1091   1.449   1_556  S
C24        C1016   1.472   1_556  S
C24          C25   1.380       .  A
C25          C26   1.369       .  A
C25          H28   1.083       .  S
C26          C27   1.381       .  A
C26          H29   1.082       .  S
C27        C1037   1.475       .  S
N30          C34   1.365       .  A
N30          C31   1.358       .  A
N30        C1109   1.447   1_556  S
C31         C980   1.465       .  S
C31          C32   1.376       .  A
C32          C33   1.365       .  A
C32          H35   1.083       .  S
C33          C34   1.385       .  A
C33          H36   1.082       .  S
C34         C998   1.481       .  S
Fe37         O53   2.079       .  S
Fe37         O43   2.086       .  S
Fe37         O50   2.074       .  S
Fe37         O42   2.070       .  S
Fe37         O48   1.987       .  S
Fe38         O41   2.066       .  S
Fe38         O45   2.093       .  S
Fe38         O49   2.059       .  S
Fe38         O54   2.077       .  S
Fe38         O48   1.981       .  S
Fe39         O57   2.062       .  S
Fe39         O44   2.084       .  S
Fe39         O51   2.060       .  S
Fe39         O40   2.077       .  S
Fe39         O48   1.974       .  S
O40          C47   1.274       .  A
O41          C55   1.266       .  A
O42          C47   1.271       .  A
O43          C46   1.270       .  A
O44          C56   1.273       .  A
O45          C58   1.278       .  A
C46          O51   1.265       .  A
C46         C944   1.481       .  S
C47         C926   1.471       .  S
O49          C52   1.263       .  A
O50          C52   1.266       .  A
C52        C1019   1.477       .  S
O53          C58   1.275       .  A
O54          C56   1.272       .  A
C55          O57   1.266       .  A
C55         C908   1.466       .  S
C56         C890   1.479       .  S
C58         C962   1.485       .  S
N59          C63   1.363       .  A
N59          C60   1.358       .  A
N59         C947   1.442       .  S
C60         C854   1.470       .  S
C60          C61   1.377       .  A
C61          C62   1.370       .  A
C61          H64   1.082       .  S
C62          C63   1.386       .  A
C62          H65   1.082       .  S
C63         C875   1.488       .  S
N66          C70   1.364       .  A
N66          C67   1.359       .  A
N66         C929   1.445       .  S
C67        C1142   1.475       .  S
C67          C68   1.381       .  A
C68          C69   1.373       .  A
C68          H71   1.082       .  S
C69          C70   1.380       .  A
C69          H72   1.082       .  S
C70         C836   1.478       .  S
Fe73         O89   2.067       .  S
Fe73         O79   2.094       .  S
Fe73         O86   2.080       .  S
Fe73         O78   2.078       .  S
Fe73         O84   1.974       .  S
Fe74         O77   2.066       .  S
Fe74         O81   2.071       .  S
Fe74         O85   2.068       .  S
Fe74         O90   2.075       .  S
Fe74         O84   1.979       .  S
Fe75         O93   2.073       .  S
Fe75         O80   2.069       .  S
Fe75         O87   2.059       .  S
Fe75         O76   2.073       .  S
Fe75         O84   1.965       .  S
O76          C83   1.270       .  A
O77          C91   1.267       .  A
O78          C83   1.271       .  A
O79          C82   1.274       .  A
O80          C92   1.270       .  A
O81          C94   1.270       .  A
C82          O87   1.268       .  A
C82         C785   1.479       .  S
C83         C803   1.476       .  S
O85          C88   1.269       .  A
O86          C88   1.270       .  A
C88         C857   1.478       .  S
O89          C94   1.272       .  A
O90          C92   1.271       .  A
C91          O93   1.270       .  A
C91         C746   1.476       .  S
C92         C764   1.469       .  S
C94         C818   1.471       .  S
N95          C99   1.366       .  A
N95          C96   1.359       .  A
N95         C782   1.443   1_556  S
C96         C710   1.473       .  S
C96          C97   1.377       .  A
C97          C98   1.370       .  A
C97         H100   1.082       .  S
C98          C99   1.386       .  A
C98         H101   1.082       .  S
C99         C728   1.490       .  S
N102        C106   1.365       .  A
N102        C103   1.361       .  A
N102        C800   1.446   1_556  S
C103        C965   1.482       .  S
C103        C104   1.382       .  A
C104        C105   1.376       .  A
C104        H107   1.082       .  S
C105        C106   1.381       .  A
C105        H108   1.082       .  S
C106        C692   1.483       .  S
Fe109       O125   2.059       .  S
Fe109       O115   2.076       .  S
Fe109       O122   2.061       .  S
Fe109       O114   2.066       .  S
Fe109       O120   1.980       .  S
Fe110       O113   2.067       .  S
Fe110       O117   2.074       .  S
Fe110       O121   2.080       .  S
Fe110       O126   2.071       .  S
Fe110       O120   1.991       .  S
Fe111       O129   2.066       .  S
Fe111       O116   2.067       .  S
Fe111       O123   2.065       .  S
Fe111       O112   2.076       .  S
Fe111       O120   1.965       .  S
O112        C119   1.273       .  A
O113        C127   1.268       .  A
O114        C119   1.270       .  A
O115        C118   1.267       .  A
O116        C128   1.269       .  A
O117        C130   1.271       .  A
C118        O123   1.267       .  A
C118        C674   1.479       .  S
C119        C656   1.474       .  S
O121        C124   1.269       .  A
O122        C124   1.268       .  A
C124        C713   1.478       .  S
O125        C130   1.269       .  A
O126        C128   1.269       .  A
C127        O129   1.269       .  A
C127        C638   1.464       .  S
C128        C623   1.476       .  S
C130        C983   1.471       .  S
N131        C135   1.361       .  A
N131        C132   1.361       .  A
N131        C677   1.447       .  S
C132       C1127   1.477       .  S
C132        C133   1.382       .  A
C133        C134   1.377       .  A
C133        H136   1.083       .  S
C134        C135   1.381       .  A
C134        H137   1.082       .  S
C135        C602   1.479       .  S
N138        C142   1.363       .  A
N138        C139   1.355       .  A
N138        C659   1.445       .  S
C139        C821   1.465       .  S
C139        C140   1.378       .  A
C140        C141   1.371       .  A
C140        H143   1.082       .  S
C141        C142   1.384       .  A
C141        H144   1.082       .  S
C142        C584   1.482       .  S
Fe145       O161   2.078       .  S
Fe145       O151   2.074       .  S
Fe145       O158   2.070       .  S
Fe145       O150   2.085       .  S
Fe145       O156   1.967       .  S
Fe146       O149   2.074       .  S
Fe146       O153   2.069       .  S
Fe146       O157   2.071       .  S
Fe146       O162   2.076       .  S
Fe146       O156   1.965       .  S
Fe147       O165   2.064       .  S
Fe147       O152   2.087       .  S
Fe147       O159   2.066       .  S
Fe147       O148   2.067       .  S
Fe147       O156   1.952       .  S
O148        C155   1.276       .  A
O149        C163   1.271       .  A
O150        C155   1.276       .  A
O151        C154   1.266       .  A
O152        C164   1.270       .  A
O153        C166   1.271       .  A
C154        O159   1.266       .  A
C154        C512   1.475       .  S
C155        C533   1.471       .  S
O157        C160   1.269       .  A
O158        C160   1.270       .  A
C160        C551   1.476       .  S
O161        C166   1.271       .  A
O162        C164   1.269       .  A
C163        O165   1.271       .  A
C163        C587   1.462       .  S
C164        C605   1.484       .  S
C166        C566   1.475       .  S
N167        C171   1.365   1_554  A
N167        C168   1.362   1_554  A
N167        C515   1.448       .  S
C168        C494   1.476       .  S
C168        C169   1.380       .  A
C169        C170   1.371       .  A
C169        H172   1.082       .  S
C170        C171   1.381       .  A
C170        H173   1.082       .  S
C171        C620   1.480       .  S
N174        C178   1.361       .  A
N174        C175   1.355       .  A
N174        C530   1.436   1_556  S
C175        C479   1.470       .  S
C175        C176   1.377       .  A
C176        C177   1.371       .  A
C176        H179   1.082       .  S
C177        C178   1.386       .  A
C177        H180   1.081       .  S
C178        C641   1.486       .  S
Fe181       O197   2.081       .  S
Fe181       O187   2.088       .  S
Fe181       O194   2.076       .  S
Fe181       O186   2.091       .  S
Fe181       O192   1.982       .  S
Fe182       O185   2.060       .  S
Fe182       O189   2.074       .  S
Fe182       O193   2.069       .  S
Fe182       O198   2.060       .  S
Fe182       O192   1.984       .  S
Fe183       O201   2.073       .  S
Fe183       O188   2.077       .  S
Fe183       O195   2.064       .  S
Fe183       O184   2.058       .  S
Fe183       O192   1.975       .  S
O184        C191   1.270       .  A
O185        C199   1.267       .  A
O186        C191   1.274       .  A
O187        C190   1.270       .  A
O188        C200   1.270       .  A
O189        C202   1.270       .  A
C190        O195   1.268       .  A
C190        C440   1.479       .  S
C191        C422   1.471       .  S
O193        C196   1.268       .  A
O194        C196   1.269       .  A
C196        C497   1.480       .  S
O197        C202   1.273       .  A
O198        C200   1.268       .  A
C199        O201   1.270       .  A
C199       C1001   1.466       .  S
C200       C1034   1.474       .  S
C202        C461   1.481       .  S
N203        C207   1.365       .  A
N203        C204   1.363       .  A
N203        C443   1.448       .  S
C204        C404   1.480       .  S
C204        C205   1.382       .  A
C205        C206   1.372       .  A
C205        H208   1.083       .  S
C206        C207   1.380       .  A
C206        H209   1.082       .  S
C207       C1073   1.482       .  S
N210        C214   1.366       .  A
N210        C211   1.359       .  A
N210        C425   1.447       .  S
C211        C569   1.475       .  S
C211        C212   1.380       .  A
C212        C213   1.372       .  A
C212        H215   1.082       .  S
C213        C214   1.382       .  A
C213        H216   1.082       .  S
C214       C1055   1.482       .  S
Fe217       O233   2.074       .  S
Fe217       O223   2.074       .  S
Fe217       O230   2.082       .  S
Fe217       O222   2.066       .  S
Fe217       O228   1.987       .  S
Fe218       O221   2.069       .  S
Fe218       O225   2.065       .  S
Fe218       O229   2.076       .  S
Fe218       O234   2.054       .  S
Fe218       O228   1.980       .  S
Fe219       O237   2.085       .  S
Fe219       O224   2.074       .  S
Fe219       O231   2.079       .  S
Fe219       O220   2.073       .  S
Fe219       O228   1.977       .  S
O220        C227   1.269       .  A
O221        C235   1.272       .  A
O222        C227   1.268       .  A
O223        C226   1.272       .  A
O224        C236   1.268       .  A
O225        C238   1.266       .  A
C226        O231   1.273       .  A
C226        C350   1.480       .  S
C227        C371   1.475       .  S
O229        C232   1.272       .  A
O230        C232   1.273       .  A
C232        C407   1.481       .  S
O233        C238   1.268       .  A
O234        C236   1.263       .  A
C235        O237   1.274       .  A
C235        C839   1.480       .  S
C236        C872   1.467       .  S
C238        C386   1.480       .  S
N239        C243   1.364       .  A
N239        C240   1.365       .  A
N239        C353   1.450   1_556  S
C240        C332   1.482       .  S
C240        C241   1.383       .  A
C241        C242   1.374       .  A
C241        H244   1.083       .  S
C242        C243   1.378       .  A
C242        H245   1.082       .  S
C243        C893   1.479       .  S
N246        C250   1.364       .  A
N246        C247   1.361       .  A
N246        C368   1.444   1_556  S
C247        C458   1.475       .  S
C247        C248   1.379       .  A
C248        C249   1.370       .  A
C248        H251   1.082       .  S
C249        C250   1.384       .  A
C249        H252   1.082       .  S
C250        C911   1.486       .  S
Fe253       O269   2.069       .  S
Fe253       O259   2.090       .  S
Fe253       O266   2.079       .  S
Fe253       O258   2.074       .  S
Fe253       O264   1.968       .  S
Fe254       O257   2.083       .  S
Fe254       O261   2.085       .  S
Fe254       O265   2.083       .  S
Fe254       O270   2.080       .  S
Fe254       O264   1.973       .  S
Fe255       O273   2.075       .  S
Fe255       O260   2.073       .  S
Fe255       O267   2.069       .  S
Fe255       O256   2.079       .  S
Fe255       O264   1.960       .  S
O256        C263   1.268       .  A
O257        C271   1.270       .  A
O258        C263   1.268       .  A
O259        C262   1.276       .  A
O260        C272   1.273       .  A
O261        C274   1.273       .  A
C262        O267   1.273       .  A
C262        C314   1.477       .  S
C263        C296   1.478       .  S
O265        C268   1.271       .  A
O266        C268   1.271       .  A
C268        C335   1.486       .  S
O269        C274   1.271       .  A
O270        C272   1.273       .  A
C271        O273   1.269       .  A
C271        C695   1.486       .  S
C272        C731   1.470       .  S
C274        C476   1.479       .  S
N275        C279   1.362       .  A
N275        C276   1.356       .  A
N275        C317   1.439       .  S
C276        C548   1.472       .  S
C276        C277   1.379       .  A
C277        C278   1.374       .  A
C277        H280   1.082       .  S
C278        C279   1.386       .  A
C278        H281   1.082       .  S
C279        C767   1.489       .  S
N282        C286   1.364       .  A
N282        C283   1.361       .  A
N282        C299   1.445       .  S
C283        C389   1.479       .  S
C283        C284   1.381       .  A
C284        C285   1.374       .  A
C284        H287   1.082       .  S
C285        C286   1.381       .  A
C285        H288   1.082       .  S
C286        C749   1.481       .  S
C289        N295   1.344       .  A
C289        C294   1.384       .  A
C289        C290   1.406       .  A
C290        C291   1.404       .  A
C290        H301   1.083       .  S
C291        C300   1.379       .  A
C291        C292   1.383       .  A
C292        N298   1.344       .  A
C292        C293   1.405       .  A
C293        C294   1.405       .  A
C293        H302   1.082       .  S
C294        C297   1.383       .  A
N295        C296   1.358       .  A
N295        H305   1.045       .  S
C296        C297   1.396       .  A
C297        H303   1.082       .  S
N298        C299   1.357       .  A
N298        H306   1.044       .  S
C299        C300   1.398       .  A
C300        H304   1.080       .  S
C307        N313   1.346       .  A
C307        C312   1.384       .  A
C307        C308   1.405       .  A
C308        C309   1.404       .  A
C308        H319   1.082       .  S
C309        C318   1.379       .  A
C309        C310   1.386       .  A
C310        N316   1.344       .  A
C310        C311   1.403       .  A
C311        C312   1.403       .  A
C311        H320   1.082       .  S
C312        C315   1.378       .  A
N313        C314   1.357       .  A
N313        H323   1.045       .  S
C314        C315   1.396       .  A
C315        H321   1.082       .  S
N316        C317   1.355       .  A
N316        H324   1.044       .  S
C317        C318   1.396       .  A
C318        H322   1.082       .  S
C325        N331   1.346   1_655  A
C325        C330   1.383       .  A
C325        C326   1.407       .  A
C326        C327   1.405       .  A
C326        H337   1.082       .  S
C327        C336   1.381       .  A
C327        C328   1.383       .  A
C328        N334   1.350       .  A
C328        C329   1.410       .  A
C329        C330   1.410       .  A
C329        H338   1.082   1_556  S
C330        C333   1.386       .  A
N331        C332   1.357       .  A
N331        H341   1.045       .  S
C332        C333   1.401   1_455  A
C333        H339   1.082   1_556  S
N334        C335   1.359       .  A
N334        H342   1.045       .  S
C335        C336   1.397       .  A
C336        H340   1.082       .  S
C343        N349   1.346       .  A
C343        C348   1.384       .  A
C343        C344   1.401       .  A
C344        C345   1.403       .  A
C344        H355   1.083       .  S
C345        C354   1.370       .  A
C345        C346   1.383       .  A
C346        N352   1.352       .  A
C346        C347   1.408       .  A
C347        C348   1.410       .  A
C347        H356   1.082       .  S
C348        C351   1.381       .  A
N349        C350   1.356       .  A
N349        H359   1.045       .  S
C350        C351   1.399       .  A
C351        H357   1.082       .  S
N352        C353   1.359       .  A
N352        H360   1.043       .  S
C353        C354   1.398       .  A
C354        H358   1.076       .  S
C361        N367   1.349       .  A
C361        C366   1.385       .  A
C361        C362   1.407       .  A
C362        C363   1.407       .  A
C362        H373   1.082       .  S
C363        C372   1.381       .  A
C363        C364   1.385       .  A
C364        N370   1.345       .  A
C364        C365   1.402       .  A
C365        C366   1.402       .  A
C365        H374   1.082       .  S
C366        C369   1.376       .  A
N367        C368   1.357       .  A
N367        H377   1.044       .  S
C368        C369   1.396       .  A
C369        H375   1.082       .  S
N370        C371   1.355       .  A
N370        H378   1.045       .  S
C371        C372   1.398       .  A
C372        H376   1.082       .  S
C379        N385   1.346       .  A
C379        C384   1.384       .  A
C379        C380   1.404       .  A
C380        C381   1.405       .  A
C380        H391   1.082       .  S
C381        C390   1.379   1_455  A
C381        C382   1.384       .  A
C382        N388   1.348       .  A
C382        C383   1.408       .  A
C383        C384   1.407       .  A
C383        H392   1.082       .  S
C384        C387   1.381       .  A
N385        C386   1.356       .  A
N385        H395   1.045       .  S
C386        C387   1.398       .  A
C387        H393   1.082       .  S
N388        C389   1.358   1_455  A
N388        H396   1.045       .  S
C389        C390   1.395       .  A
C390        H394   1.082       .  S
C397        N403   1.348       .  A
C397        C402   1.383       .  A
C397        C398   1.408       .  A
C398        C399   1.407       .  A
C398        H409   1.082       .  S
C399        C408   1.384       .  A
C399        C400   1.383       .  A
C400        N406   1.346       .  A
C400        C401   1.406       .  A
C401        C402   1.406       .  A
C401        H410   1.082       .  S
C402        C405   1.380       .  A
N403        C404   1.357       .  A
N403        H413   1.045       .  S
C404        C405   1.398       .  A
C405        H411   1.083       .  S
N406        C407   1.357       .  A
N406        H414   1.045       .  S
C407        C408   1.398       .  A
C408        H412   1.082       .  S
C415        N421   1.351       .  A
C415        C420   1.385       .  A
C415        C416   1.408       .  A
C416        C417   1.409       .  A
C416        H427   1.082       .  S
C417        C426   1.379       .  A
C417        C418   1.384       .  A
C418        N424   1.343       .  A
C418        C419   1.399       .  A
C419        C420   1.400       .  A
C419        H428   1.082       .  S
C420        C423   1.371       .  A
N421        C422   1.358       .  A
N421        H431   1.045       .  S
C422        C423   1.391       .  A
C423        H429   1.083       .  S
N424        C425   1.355       .  A
N424        H432   1.042       .  S
C425        C426   1.402       .  A
C426        H430   1.082       .  S
C433        N439   1.352       .  A
C433        C438   1.384       .  A
C433        C434   1.411       .  A
C434        C435   1.411       .  A
C434        H445   1.082       .  S
C435        C444   1.386       .  A
C435        C436   1.384       .  A
C436        N442   1.341       .  A
C436        C437   1.401       .  A
C437        C438   1.400       .  A
C437        H446   1.083       .  S
C438        C441   1.374       .  A
N439        C440   1.359       .  A
N439        H449   1.044       .  S
C440        C441   1.394       .  A
C441        H447   1.083       .  S
N442        C443   1.356       .  A
N442        H450   1.042       .  S
C443        C444   1.402       .  A
C444        H448   1.082       .  S
C451        N457   1.348   1_556  A
C451        C456   1.383       .  A
C451        C452   1.410   1_556  A
C452        C453   1.409   1_554  A
C452        H463   1.082       .  S
C453        C462   1.386       .  A
C453        C454   1.384       .  A
C454        N460   1.344       .  A
C454        C455   1.403       .  A
C455        C456   1.403       .  A
C455        H464   1.082       .  S
C456        C459   1.378       .  A
N457        C458   1.358   1_554  A
N457        H467   1.045       .  S
C458        C459   1.395       .  A
C459        H465   1.083       .  S
N460        C461   1.355       .  A
N460        H468   1.044       .  S
C461        C462   1.401       .  A
C462        H466   1.083       .  S
C469        N475   1.346       .  A
C469        C474   1.383       .  A
C469        C470   1.407       .  A
C470        C471   1.406       .  A
C470        H481   1.082   1_556  S
C471        C480   1.383   1_556  A
C471        C472   1.385       .  A
C472        N478   1.341       .  A
C472        C473   1.403       .  A
C473        C474   1.401       .  A
C473        H482   1.083       .  S
C474        C477   1.379       .  A
N475        C476   1.357       .  A
N475        H485   1.045       .  S
C476        C477   1.396       .  A
C477        H483   1.083       .  S
N478        C479   1.354       .  A
N478        H486   1.045       .  S
C479        C480   1.396   1_556  A
C480        H484   1.083       .  S
C487        N493   1.346       .  A
C487        C492   1.384   1_554  A
C487        C488   1.405       .  A
C488        C489   1.405   1_554  A
C488        H499   1.082       .  S
C489        C498   1.379       .  A
C489        C490   1.384       .  A
C490        N496   1.347       .  A
C490        C491   1.407       .  A
C491        C492   1.407       .  A
C491        H500   1.082       .  S
C492        C495   1.381   1_455  A
N493        C494   1.356   1_454  A
N493        H503   1.045       .  S
C494        C495   1.396       .  A
C495        H501   1.082       .  S
N496        C497   1.358       .  A
N496        H504   1.045       .  S
C497        C498   1.397       .  A
C498        H502   1.082   1_556  S
C505        N511   1.349       .  A
C505        C510   1.384       .  A
C505        C506   1.408       .  A
C506        C507   1.409       .  A
C506        H517   1.082       .  S
C507        C516   1.382       .  A
C507        C508   1.384       .  A
C508        N514   1.342       .  A
C508        C509   1.402       .  A
C509        C510   1.401       .  A
C509        H518   1.083       .  S
C510        C513   1.374       .  A
N511        C512   1.358       .  A
N511        H521   1.044       .  S
C512        C513   1.395       .  A
C513        H519   1.083       .  S
N514        C515   1.355       .  A
N514        H522   1.046       .  S
C515        C516   1.401       .  A
C516        H520   1.082       .  S
C523        N529   1.342       .  A
C523        C528   1.386       .  A
C523        C524   1.402       .  A
C524        C525   1.401       .  A
C524        H535   1.082       .  S
C525        C534   1.378       .  A
C525        C526   1.385       .  A
C526        N532   1.343       .  A
C526        C527   1.405       .  A
C527        C528   1.403       .  A
C527        H536   1.083       .  S
C528        C531   1.379       .  A
N529        C530   1.353       .  A
N529        H539   1.044       .  S
C530        C531   1.394       .  A
C531        H537   1.082       .  S
N532        C533   1.357       .  A
N532        H540   1.045       .  S
C533        C534   1.394       .  A
C534        H538   1.082       .  S
C541        N547   1.348       .  A
C541        C546   1.385       .  A
C541        C542   1.407       .  A
C542        C543   1.407       .  A
C542        H553   1.082       .  S
C543        C552   1.382       .  A
C543        C544   1.385       .  A
C544        N550   1.343       .  A
C544        C545   1.400       .  A
C545        C546   1.400       .  A
C545        H554   1.083       .  S
C546        C549   1.374       .  A
N547        C548   1.356       .  A
N547        H557   1.045       .  S
C548        C549   1.391       .  A
C549        H555   1.083       .  S
N550        C551   1.354       .  A
N550        H558   1.045       .  S
C551        C552   1.398       .  A
C552        H556   1.083       .  S
C559        N565   1.346       .  A
C559        C564   1.384       .  A
C559        C560   1.405       .  A
C560        C561   1.405       .  A
C560        H571   1.082       .  S
C561        C570   1.380   1_655  A
C561        C562   1.385       .  A
C562        N568   1.344       .  A
C562        C563   1.404       .  A
C563        C564   1.402       .  A
C563        H572   1.082       .  S
C564        C567   1.378       .  A
N565        C566   1.357       .  A
N565        H575   1.045       .  S
C566        C567   1.395       .  A
C567        H573   1.083       .  S
N568        C569   1.355   1_655  A
N568        H576   1.045       .  S
C569        C570   1.395       .  A
C570        H574   1.082       .  S
C577        N583   1.341       .  A
C577        C582   1.382       .  A
C577        C578   1.403       .  A
C578        C579   1.402       .  A
C578        H589   1.082       .  S
C579        C588   1.378       .  A
C579        C580   1.385       .  A
C580        N586   1.340       .  A
C580        C581   1.401       .  A
C581        C582   1.399       .  A
C581        H590   1.082       .  S
C582        C585   1.374       .  A
N583        C584   1.358       .  A
N583        H593   1.044       .  S
C584        C585   1.397       .  A
C585        H591   1.081       .  S
N586        C587   1.353       .  A
N586        H594   1.045       .  S
C587        C588   1.393       .  A
C588        H592   1.082       .  S
C595        N601   1.349       .  A
C595        C600   1.384       .  A
C595        C596   1.410       .  A
C596        C597   1.410       .  A
C596        H607   1.082       .  S
C597        C606   1.388       .  A
C597        C598   1.384       .  A
C598        N604   1.344       .  A
C598        C599   1.404       .  A
C599        C600   1.402       .  A
C599        H608   1.082       .  S
C600        C603   1.378       .  A
N601        C602   1.358       .  A
N601        H611   1.045       .  S
C602        C603   1.392       .  A
C603        H609   1.082       .  S
N604        C605   1.357       .  A
N604        H612   1.045       .  S
C605        C606   1.400       .  A
C606        H610   1.082       .  S
C613        N619   1.350       .  A
C613        C618   1.384       .  A
C613        C614   1.409       .  A
C614        C615   1.409       .  A
C614        H625   1.082   1_556  S
C615        C624   1.385       .  A
C615        C616   1.384       .  A
C616        N622   1.341       .  A
C616        C617   1.400       .  A
C617        C618   1.400       .  A
C617        H626   1.083       .  S
C618        C621   1.373       .  A
N619        C620   1.358       .  A
N619        H629   1.045   1_556  S
C620        C621   1.394       .  A
C621        H627   1.083       .  S
N622        C623   1.355       .  A
N622        H630   1.045       .  S
C623        C624   1.400       .  A
C624        H628   1.082       .  S
C631        N637   1.343       .  A
C631        C636   1.385       .  A
C631        C632   1.405       .  A
C632        C633   1.404       .  A
C632        H643   1.082   1_556  S
C633        C642   1.382       .  A
C633        C634   1.383       .  A
C634        N640   1.338       .  A
C634        C635   1.401       .  A
C635        C636   1.398       .  A
C635        H644   1.083       .  S
C636        C639   1.377       .  A
N637        C638   1.355       .  A
N637        H647   1.045       .  S
C638        C639   1.392       .  A
C639        H645   1.083       .  S
N640        C641   1.357       .  A
N640        H648   1.044       .  S
C641        C642   1.400       .  A
C642        H646   1.081   1_556  S
C649        N655   1.345       .  A
C649        C654   1.385       .  A
C649        C650   1.402       .  A
C650        C651   1.402       .  A
C650        H661   1.082       .  S
C651        C660   1.375       .  A
C651        C652   1.385       .  A
C652        N658   1.347       .  A
C652        C653   1.406       .  A
C653        C654   1.406       .  A
C653        H662   1.082       .  S
C654        C657   1.379       .  A
N655        C656   1.355       .  A
N655        H665   1.045       .  S
C656        C657   1.398       .  A
C657        H663   1.083       .  S
N658        C659   1.358       .  A
N658        H666   1.044       .  S
C659        C660   1.395       .  A
C660        H664   1.082       .  S
C667        N673   1.349       .  A
C667        C672   1.383       .  A
C667        C668   1.411       .  A
C668        C669   1.409       .  A
C668        H679   1.082       .  S
C669        C678   1.387       .  A
C669        C670   1.383       .  A
C670        N676   1.339       .  A
C670        C671   1.401       .  A
C671        C672   1.399       .  A
C671        H680   1.083       .  S
C672        C675   1.375       .  A
N673        C674   1.360       .  A
N673        H683   1.045       .  S
C674        C675   1.394       .  A
C675        H681   1.083       .  S
N676        C677   1.355       .  A
N676        H684   1.042       .  S
C677        C678   1.402       .  A
C678        H682   1.080       .  S
C685        N691   1.351       .  A
C685        C690   1.384       .  A
C685        C686   1.412       .  A
C686        C687   1.412       .  A
C686        H697   1.082   1_556  S
C687        C696   1.390       .  A
C687        C688   1.383       .  A
C688        N694   1.343       .  A
C688        C689   1.403       .  A
C689        C690   1.402       .  A
C689        H698   1.082       .  S
C690        C693   1.378       .  A
N691        C692   1.359       .  A
N691        H701   1.044   1_556  S
C692        C693   1.394       .  A
C693        H699   1.082       .  S
N694        C695   1.357       .  A
N694        H702   1.045       .  S
C695        C696   1.402       .  A
C696        H700   1.082       .  S
C703        N709   1.341   1_545  A
C703        C708   1.385       .  A
C703        C704   1.401       .  A
C704        C705   1.400       .  A
C704        H715   1.083       .  S
C705        C714   1.375       .  A
C705        C706   1.384       .  A
C706        N712   1.349       .  A
C706        C707   1.409       .  A
C707        C708   1.408       .  A
C707        H716   1.082   1_556  S
C708        C711   1.385   1_545  A
N709        C710   1.353       .  A
N709        H719   1.045       .  S
C710        C711   1.396       .  A
C711        H717   1.082   1_556  S
N712        C713   1.359       .  A
N712        H720   1.045       .  S
C713        C714   1.394       .  A
C714        H718   1.083       .  S
C721        N727   1.345       .  A
C721        C726   1.382       .  A
C721        C722   1.404       .  A
C722        C723   1.403       .  A
C722        H733   1.082       .  S
C723        C732   1.377       .  A
C723        C724   1.385       .  A
C724        N730   1.346       .  A
C724        C725   1.404       .  A
C725        C726   1.404       .  A
C725        H734   1.082       .  S
C726        C729   1.375       .  A
N727        C728   1.358       .  A
N727        H737   1.043       .  S
C728        C729   1.400       .  A
C729        H735   1.082       .  S
N730        C731   1.355       .  A
N730        H738   1.045       .  S
C731        C732   1.395       .  A
C732        H736   1.082       .  S
C739        N745   1.349       .  A
C739        C744   1.384       .  A
C739        C740   1.410       .  A
C740        C741   1.410       .  A
C740        H751   1.082       .  S
C741        C750   1.387       .  A
C741        C742   1.384       .  A
C742        N748   1.341       .  A
C742        C743   1.400       .  A
C743        C744   1.399       .  A
C743        H752   1.082       .  S
C744        C747   1.374       .  A
N745        C746   1.360       .  A
N745        H755   1.045       .  S
C746        C747   1.393       .  A
C747        H753   1.082       .  S
N748        C749   1.354       .  A
N748        H756   1.045       .  S
C749        C750   1.400       .  A
C750        H754   1.082       .  S
C757        N763   1.346       .  A
C757        C762   1.385       .  A
C757        C758   1.404       .  A
C758        C759   1.404       .  A
C758        H769   1.082       .  S
C759        C768   1.376       .  A
C759        C760   1.382       .  A
C760        N766   1.344       .  A
C760        C761   1.404       .  A
C761        C762   1.403       .  A
C761        H770   1.082       .  S
C762        C765   1.377       .  A
N763        C764   1.355       .  A
N763        H773   1.044       .  S
C764        C765   1.394       .  A
C765        H771   1.082       .  S
N766        C767   1.357       .  A
N766        H774   1.048       .  S
C767        C768   1.399       .  A
C768        H772   1.082       .  S
C775        N781   1.344       .  A
C775        C780   1.385       .  A
C775        C776   1.405       .  A
C776        C777   1.405       .  A
C776        H787   1.082       .  S
C777        C786   1.382       .  A
C777        C778   1.384       .  A
C778        N784   1.345       .  A
C778        C779   1.406       .  A
C779        C780   1.404       .  A
C779        H788   1.082       .  S
C780        C783   1.381       .  A
N781        C782   1.356       .  A
N781        H791   1.044       .  S
C782        C783   1.396       .  A
C783        H789   1.082       .  S
N784        C785   1.357       .  A
N784        H792   1.045       .  S
C785        C786   1.397       .  A
C786        H790   1.082       .  S
C793        N799   1.347       .  A
C793        C798   1.383       .  A
C793        C794   1.410       .  A
C794        C795   1.409       .  A
C794        H805   1.082       .  S
C795        C804   1.387       .  A
C795        C796   1.384       .  A
C796        N802   1.341       .  A
C796        C797   1.401       .  A
C797        C798   1.400       .  A
C797        H806   1.082       .  S
C798        C801   1.375       .  A
N799        C800   1.360       .  A
N799        H809   1.044       .  S
C800        C801   1.396       .  A
C801        H807   1.080       .  S
N802        C803   1.355       .  A
N802        H810   1.045       .  S
C803        C804   1.399       .  A
C804        H808   1.082       .  S
C811        N817   1.344       .  A
C811        C816   1.385       .  A
C811        C812   1.405       .  A
C812        C813   1.404       .  A
C812        H823   1.082       .  S
C813        C822   1.380   1_565  A
C813        C814   1.385       .  A
C814        N820   1.340   1_565  A
C814        C815   1.402       .  A
C815        C816   1.399       .  A
C815        H824   1.083       .  S
C816        C819   1.376       .  A
N817        C818   1.357       .  A
N817        H827   1.045       .  S
C818        C819   1.393       .  A
C819        H825   1.082       .  S
N820        C821   1.354       .  A
N820        H828   1.045       .  S
C821        C822   1.393       .  A
C822        H826   1.082   1_545  S
C829        N835   1.343       .  A
C829        C834   1.384       .  A
C829        C830   1.406       .  A
C830        C831   1.405       .  A
C830        H841   1.082       .  S
C831        C840   1.383       .  A
C831        C832   1.384       .  A
C832        N838   1.344       .  A
C832        C833   1.406       .  A
C833        C834   1.404       .  A
C833        H842   1.082       .  S
C834        C837   1.384       .  A
N835        C836   1.356       .  A
N835        H845   1.045       .  S
C836        C837   1.396       .  A
C837        H843   1.082       .  S
N838        C839   1.357       .  A
N838        H846   1.045       .  S
C839        C840   1.399       .  A
C840        H844   1.082       .  S
C847        N853   1.345       .  A
C847        C852   1.385       .  A
C847        C848   1.405       .  A
C848        C849   1.404       .  A
C848        H859   1.082       .  S
C849        C858   1.380       .  A
C849        C850   1.384       .  A
C850        N856   1.345       .  A
C850        C851   1.404       .  A
C851        C852   1.404       .  A
C851        H860   1.083       .  S
C852        C855   1.378       .  A
N853        C854   1.355       .  A
N853        H863   1.045       .  S
C854        C855   1.394       .  A
C855        H861   1.083       .  S
N856        C857   1.357       .  A
N856        H864   1.045       .  S
C857        C858   1.396       .  A
C858        H862   1.082       .  S
C865        N871   1.344       .  A
C865        C870   1.385       .  A
C865        C866   1.398       .  A
C866        C867   1.400       .  A
C866        H877   1.082       .  S
C867        C876   1.370       .  A
C867        C868   1.383       .  A
C868        N874   1.350       .  A
C868        C869   1.407       .  A
C869        C870   1.408       .  A
C869        H878   1.082       .  S
C870        C873   1.379       .  A
N871        C872   1.352       .  A
N871        H881   1.045       .  S
C872        C873   1.397       .  A
C873        H879   1.083       .  S
N874        C875   1.360       .  A
N874        H882   1.044       .  S
C875        C876   1.396       .  A
C876        H880   1.082       .  S
C883        N889   1.344       .  A
C883        C888   1.384       .  A
C883        C884   1.406       .  A
C884        C885   1.404       .  A
C884        H895   1.082       .  S
C885        C894   1.381       .  A
C885        C886   1.384       .  A
C886        N892   1.346       .  A
C886        C887   1.407       .  A
C887        C888   1.406       .  A
C887        H896   1.082       .  S
C888        C891   1.385       .  A
N889        C890   1.357       .  A
N889        H899   1.045       .  S
C890        C891   1.398       .  A
C891        H897   1.082       .  S
N892        C893   1.356       .  A
N892        H900   1.045       .  S
C893        C894   1.394       .  A
C894        H898   1.082       .  S
C901        N907   1.344       .  A
C901        C906   1.385       .  A
C901        C902   1.401       .  A
C902        C903   1.402       .  A
C902        H913   1.082       .  S
C903        C912   1.373       .  A
C903        C904   1.383       .  A
C904        N910   1.347       .  A
C904        C905   1.405       .  A
C905        C906   1.405       .  A
C905        H914   1.082       .  S
C906        C909   1.378       .  A
N907        C908   1.353       .  A
N907        H917   1.045       .  S
C908        C909   1.395       .  A
C909        H915   1.083       .  S
N910        C911   1.359       .  A
N910        H918   1.043       .  S
C911        C912   1.397       .  A
C912        H916   1.082       .  S
C919        N925   1.342       .  A
C919        C924   1.384       .  A
C919        C920   1.402       .  A
C920        C921   1.401       .  A
C920        H931   1.082       .  S
C921        C930   1.377       .  A
C921        C922   1.383       .  A
C922        N928   1.345       .  A
C922        C923   1.407       .  A
C923        C924   1.406       .  A
C923        H932   1.082       .  S
C924        C927   1.383       .  A
N925        C926   1.354       .  A
N925        H935   1.045       .  S
C926        C927   1.397       .  A
C927        H933   1.082       .  S
N928        C929   1.359       .  A
N928        H936   1.044       .  S
C929        C930   1.396       .  A
C930        H934   1.080       .  S
C937        N943   1.344       .  A
C937        C942   1.384       .  A
C937        C938   1.405       .  A
C938        C939   1.403       .  A
C938        H949   1.082       .  S
C939        C948   1.379       .  A
C939        C940   1.385       .  A
C940        N946   1.346       .  A
C940        C941   1.407       .  A
C941        C942   1.407       .  A
C941        H950   1.082       .  S
C942        C945   1.385       .  A
N943        C944   1.357       .  A
N943        H953   1.045       .  S
C944        C945   1.399       .  A
C945        H951   1.082       .  S
N946        C947   1.357       .  A
N946        H954   1.044       .  S
C947        C948   1.395       .  A
C948        H952   1.082       .  S
C955        N961   1.347       .  A
C955        C960   1.384       .  A
C955        C956   1.406   1_556  A
C956        C957   1.406       .  A
C956        H967   1.082       .  S
C957        C966   1.382       .  A
C957        C958   1.384   1_554  A
C958        N964   1.348       .  A
C958        C959   1.408       .  A
C959        C960   1.408       .  A
C959        H968   1.082       .  S
C960        C963   1.384       .  A
N961        C962   1.357       .  A
N961        H971   1.045   1_556  S
C962        C963   1.400       .  A
C963        H969   1.082       .  S
N964        C965   1.357       .  A
N964        H972   1.045       .  S
C965        C966   1.397   1_556  A
C966        H970   1.082       .  S
C973        N979   1.340       .  A
C973        C978   1.385   1_556  A
C973        C974   1.401       .  A
C974        C975   1.399       .  A
C974        H985   1.083       .  S
C975        C984   1.374       .  A
C975        C976   1.384       .  A
C976        N982   1.346       .  A
C976        C977   1.405   1_556  A
C977        C978   1.405       .  A
C977        H986   1.082       .  S
C978        C981   1.381       .  A
N979        C980   1.354       .  A
N979        H989   1.045       .  S
C980        C981   1.395   1_556  A
C981        H987   1.082       .  S
N982        C983   1.357       .  A
N982        H990   1.045       .  S
C983        C984   1.394       .  A
C984        H988   1.083       .  S
C991        N997   1.338       .  A
C991        C996   1.382       .  A
C991        C992   1.403       .  A
C992        C993   1.400       .  A
C992       H1003   1.082       .  S
C993       C1002   1.380       .  A
C993        C994   1.384       .  A
C994       N1000   1.340       .  A
C994        C995   1.403       .  A
C995        C996   1.401       .  A
C995       H1004   1.082   1_556  S
C996        C999   1.379       .  A
N997        C998   1.358       .  A
N997       H1007   1.044       .  S
C998        C999   1.398       .  A
C999       H1005   1.081   1_556  S
N1000      C1001   1.355       .  A
N1000      H1008   1.045       .  S
C1001      C1002   1.393       .  A
C1002      H1006   1.082       .  S
C1009      N1015   1.345   1_565  A
C1009      C1014   1.384   1_556  A
C1009      C1010   1.407       .  A
C1010      C1011   1.405       .  A
C1010      H1021   1.082       .  S
C1011      C1020   1.383       .  A
C1011      C1012   1.384       .  A
C1012      N1018   1.344       .  A
C1012      C1013   1.404   1_556  A
C1013      C1014   1.403       .  A
C1013      H1022   1.083       .  S
C1014      C1017   1.379       .  A
N1015      C1016   1.356   1_556  A
N1015      H1025   1.045       .  S
C1016      C1017   1.396   1_545  A
C1017      H1023   1.083       .  S
N1018      C1019   1.356       .  A
N1018      H1026   1.045       .  S
C1019      C1020   1.397       .  A
C1020      H1024   1.082       .  S
C1027      N1033   1.344       .  A
C1027      C1032   1.385       .  A
C1027      C1028   1.401       .  A
C1028      C1029   1.401       .  A
C1028      H1039   1.083       .  S
C1029      C1038   1.372       .  A
C1029      C1030   1.384       .  A
C1030      N1036   1.347       .  A
C1030      C1031   1.404       .  A
C1031      C1032   1.406       .  A
C1031      H1040   1.082   1_556  S
C1032      C1035   1.379       .  A
N1033      C1034   1.356       .  A
N1033      H1043   1.045       .  S
C1034      C1035   1.397       .  A
C1035      H1041   1.082       .  S
N1036      C1037   1.356       .  A
N1036      H1044   1.044   1_556  S
C1037      C1038   1.394       .  A
C1038      H1042   1.083       .  S
C1045      N1051   1.347       .  A
C1045      C1050   1.384       .  A
C1045      C1046   1.405       .  A
C1046      C1047   1.405       .  A
C1046      H1057   1.082       .  S
C1047      C1056   1.378       .  A
C1047      C1048   1.384       .  A
C1048      N1054   1.348       .  A
C1048      C1049   1.406       .  A
C1049      C1050   1.407       .  A
C1049      H1058   1.082       .  S
C1050      C1053   1.381       .  A
N1051      C1052   1.357       .  A
N1051      H1061   1.045       .  S
C1052      C1053   1.399       .  A
C1053      H1059   1.082       .  S
N1054      C1055   1.357       .  A
N1054      H1062   1.044       .  S
C1055      C1056   1.397       .  A
C1056      H1060   1.083       .  S
C1063      N1069   1.343       .  A
C1063      C1068   1.384       .  A
C1063      C1064   1.403       .  A
C1064      C1065   1.401       .  A
C1064      H1075   1.082       .  S
C1065      C1074   1.377       .  A
C1065      C1066   1.384       .  A
C1066      N1072   1.351       .  A
C1066      C1067   1.412       .  A
C1067      C1068   1.412       .  A
C1067      H1076   1.082       .  S
C1068      C1071   1.389       .  A
N1069      C1070   1.356       .  A
N1069      H1079   1.045       .  S
C1070      C1071   1.402       .  A
C1071      H1077   1.082       .  S
N1072      C1073   1.359       .  A
N1072      H1080   1.044       .  S
C1073      C1074   1.393       .  A
C1074      H1078   1.082       .  S
C1081      N1087   1.351       .  A
C1081      C1086   1.384       .  A
C1081      C1082   1.407       .  A
C1082      C1083   1.408       .  A
C1082      H1093   1.082       .  S
C1083      C1092   1.381       .  A
C1083      C1084   1.384       .  A
C1084      N1090   1.347       .  A
C1084      C1085   1.405       .  A
C1085      C1086   1.406       .  A
C1085      H1094   1.082       .  S
C1086      C1089   1.378       .  A
N1087      C1088   1.357       .  A
N1087      H1097   1.044       .  S
C1088      C1089   1.397       .  A
C1089      H1095   1.083       .  S
N1090      C1091   1.358       .  A
N1090      H1098   1.043       .  S
C1091      C1092   1.399       .  A
C1092      H1096   1.082       .  S
C1099      N1105   1.349       .  A
C1099      C1104   1.383       .  A
C1099      C1100   1.409       .  A
C1100      C1101   1.409       .  A
C1100      H1111   1.082       .  S
C1101      C1110   1.384       .  A
C1101      C1102   1.385       .  A
C1102      N1108   1.345       .  A
C1102      C1103   1.404       .  A
C1103      C1104   1.404       .  A
C1103      H1112   1.082       .  S
C1104      C1107   1.380       .  A
N1105      C1106   1.359       .  A
N1105      H1115   1.045       .  S
C1106      C1107   1.397       .  A
C1107      H1113   1.082       .  S
N1108      C1109   1.356       .  A
N1108      H1116   1.044       .  S
C1109      C1110   1.400       .  A
C1110      H1114   1.082       .  S
C1117      N1123   1.348       .  A
C1117      C1122   1.384       .  A
C1117      C1118   1.406       .  A
C1118      C1119   1.407       .  A
C1118      H1129   1.082       .  S
C1119      C1128   1.381       .  A
C1119      C1120   1.384       .  A
C1120      N1126   1.347       .  A
C1120      C1121   1.406       .  A
C1121      C1122   1.405       .  A
C1121      H1130   1.082       .  S
C1122      C1125   1.380       .  A
N1123      C1124   1.358       .  A
N1123      H1133   1.045       .  S
C1124      C1125   1.397       .  A
C1125      H1131   1.082       .  S
N1126      C1127   1.356       .  A
N1126      H1134   1.045       .  S
C1127      C1128   1.396       .  A
C1128      H1132   1.082       .  S
C1135      N1141   1.344       .  A
C1135      C1140   1.385       .  A
C1135      C1136   1.404       .  A
C1136      C1137   1.403       .  A
C1136      H1147   1.082       .  S
C1137      C1146   1.379       .  A
C1137      C1138   1.384       .  A
C1138      N1144   1.348       .  A
C1138      C1139   1.407       .  A
C1139      C1140   1.407       .  A
C1139      H1148   1.082       .  S
C1140      C1143   1.382   1_545  A
N1141      C1142   1.355   1_545  A
N1141      H1151   1.045       .  S
C1142      C1143   1.396       .  A
C1143      H1149   1.083       .  S
N1144      C1145   1.358       .  A
N1144      H1152   1.045       .  S
C1145      C1146   1.396       .  A
C1146      H1150   1.082       .  S
