geometry optimzed in LAMMPS
_audit_creation_date              2020-12-01 
_audit_creation_method            'lammps2cif' 
_symmetry_space_group_name_H-M    'P1' 
_symmetry_Int_Tables_number       1 
_symmetry_cell_setting            triclinic 
loop_ 
_symmetry_equiv_pos_as_xyz 
  x,y,z 
_cell_length_a                    67.81682951 
_cell_length_b                    67.60144249672258 
_cell_length_c                    68.12101181085008 
_cell_angle_alpha                 89.70435896133324 
_cell_angle_beta                  89.90820673976243 
_cell_angle_gamma                 90.40284858697053 
loop_ 
_atom_site_label 
_atom_site_type_symbol 
_atom_site_fract_x 
_atom_site_fract_y 
_atom_site_fract_z 
_atom_site_charge 
C1          C  0.62453693  0.69724855  0.46525896     0.80200
N2          N  0.61790348  0.67904058  0.47078654    -0.78100
C3          C  0.61837224  0.67333184  0.48997565     0.82600
N4          N  0.62598859  0.68596689  0.50356241    -0.78100
C5          C  0.63303095  0.70407332  0.49809892     0.82700
N6          N  0.63207165  0.70966783  0.47895509    -0.79800
C7          C  0.72080158  0.47582568  0.58312479     0.80200
N8          N  0.70350194  0.48063145  0.57419888    -0.78100
C9          C  0.69456583  0.49822689  0.57810467     0.82600
N10         N  0.70315448  0.51085245  0.59119493    -0.78100
C11         C  0.72047256  0.50605019  0.60006525     0.82700
N12         N  0.72909837  0.48853259  0.59604664    -0.79800
C13         C  0.47395910  0.61028563  0.68833027     0.80200
N14         N  0.48625966  0.61907764  0.70139790    -0.78100
C15         C  0.50597315  0.61995179  0.69815817     0.82600
N16         N  0.51357858  0.61163806  0.68162883    -0.78100
C17         C  0.50141085  0.60255826  0.66847159     0.82700
N18         N  0.48160989  0.60207805  0.67183157    -0.79800
C19         C  0.55605020  0.54367634  0.54005132    -0.02500
In20       In  0.72014877  0.80115121  0.63133287     1.36900
C21         C  0.74359139  0.77246693  0.64365312     0.77600
O22         O  0.71656359  0.80578681  0.66388968    -0.60900
O23         O  0.69142184  0.79718149  0.64763654    -0.51800
C24         C  0.73657602  0.83558058  0.62086213     0.70200
O25         O  0.74496624  0.81921114  0.61880080    -0.46700
C26         C  0.70281393  0.78691642  0.59934505     0.74900
O27         O  0.72859322  0.76949152  0.63322668    -0.58500
O28         O  0.69406898  0.79842252  0.61098265    -0.48600
O29         O  0.74695742  0.79042661  0.64735979    -0.55000
C30         C  0.69867738  0.80075710  0.66426836     0.85100
O31         O  0.71933642  0.83438069  0.62770112    -0.56800
O32         O  0.72072608  0.78408304  0.60328474    -0.60100
In33       In  0.62145346  0.71939181  0.80711013     1.36900
C34         C  0.62821157  0.74637068  0.77915389     0.77600
O35         O  0.65452344  0.71812638  0.80721245    -0.60900
O36         O  0.63891009  0.69097050  0.80719255    -0.51800
C37         C  0.61339782  0.73366115  0.84326124     0.70200
O38         O  0.60020004  0.72838366  0.83137755    -0.46700
C39         C  0.59280626  0.69744787  0.79112092     0.74900
O40         O  0.62096410  0.75105407  0.79554196    -0.58500
O41         O  0.60461549  0.69062777  0.80376938    -0.48600
O42         O  0.63165280  0.72824319  0.77734693    -0.55000
C43         C  0.65545588  0.69958183  0.80590772     0.85100
O44         O  0.63054055  0.73070890  0.83694976    -0.56800
O45         O  0.59467385  0.71575899  0.78795821    -0.60100
In46       In  0.80154096  0.62041653  0.72404627     1.36900
C47         C  0.77235223  0.63074701  0.74858414     0.77600
O48         O  0.81078205  0.65246727  0.72263067    -0.60900
O49         O  0.79701283  0.63977048  0.69787735    -0.51800
C50         C  0.83626303  0.61142159  0.74045219     0.70200
O51         O  0.82026297  0.60319852  0.74548076    -0.46700
C52         C  0.78939450  0.59124630  0.70046322     0.74900
O53         O  0.78812649  0.62306929  0.75465805    -0.58500
O54         O  0.80449654  0.60154946  0.69670623    -0.48600
O55         O  0.77170969  0.63298262  0.73027689    -0.55000
C56         C  0.80412144  0.65515546  0.70555906     0.85100
O57         O  0.83457322  0.62332548  0.72628737    -0.56800
O58         O  0.78181460  0.59454375  0.71698149    -0.60100
C59         C  0.21927645  0.46310597  0.89058800     0.80200
N60         N  0.20381859  0.46971263  0.90153564    -0.78100
C61         C  0.19774898  0.48887915  0.90008364     0.82600
N62         N  0.20772729  0.50135434  0.88781174    -0.78100
C63         C  0.22341182  0.49507670  0.87714784     0.82700
N64         N  0.22896072  0.47588145  0.87846692    -0.79800
C65         C  0.13652853  0.69852445  0.03443044     0.80200
N66         N  0.14604663  0.71094838  0.02179117    -0.78100
C67         C  0.14669320  0.70693768  0.00226485     0.82600
N68         N  0.13779634  0.69024938  0.99555256    -0.78100
C69         C  0.12855336  0.67752950  0.00807668     0.82700
N70         N  0.12775918  0.68180322  0.02755597    -0.79800
C71         C  0.96965829  0.61234483  0.80561873     0.80200
N72         N  0.97603594  0.60312229  0.82229301    -0.78100
C73         C  0.99540947  0.60427800  0.82762366     0.82600
N74         N  0.00828420  0.61468384  0.81608509    -0.78100
C75         C  0.00201533  0.62393002  0.79945825     0.82700
N76         N  0.98273170  0.62266028  0.79439282    -0.79800
C77         C  0.06763505  0.54996895  0.95012477    -0.02500
In78       In  0.24184447  0.80533358  0.87440533     1.36900
C79         C  0.26633667  0.77628539  0.86397054     0.77600
O80         O  0.23893869  0.78796857  0.90261510    -0.60900
O81         O  0.21422325  0.80409052  0.89270022    -0.51800
C82         C  0.25703842  0.84103101  0.88397052     0.70200
O83         O  0.26233157  0.82507120  0.89187488    -0.46700
C84         C  0.22086141  0.80350558  0.84129949     0.74900
O85         O  0.27213138  0.79395130  0.86599713    -0.58500
O86         O  0.21304229  0.80451557  0.85805550    -0.48600
O87         O  0.24837456  0.77379121  0.86799231    -0.55000
C88         C  0.22102815  0.79209855  0.90513055     0.85100
O89         O  0.24371826  0.83885674  0.87126585    -0.56800
O90         O  0.23940481  0.80514047  0.84129479    -0.60100
In91       In  0.30622965  0.62468754  0.76844556     1.36900
C92         C  0.27732789  0.63071300  0.74276403     0.77600
O93         O  0.31018922  0.59576566  0.78463264    -0.60900
O94         O  0.28362451  0.61170513  0.78877907    -0.51800
C95         C  0.33982123  0.61585544  0.74969076     0.70200
O96         O  0.32305771  0.61053391  0.74374920    -0.46700
C97         C  0.30833844  0.65835550  0.78881375     0.74900
O98         O  0.28990088  0.64366262  0.74725028    -0.58500
O99         O  0.30824933  0.64158454  0.79702382    -0.48600
O100        O  0.28006623  0.61410491  0.75071644    -0.55000
C101        C  0.29344422  0.59644304  0.79272982     0.85100
O102        O  0.33937013  0.62525287  0.76560960    -0.56800
O103        O  0.30867482  0.65773766  0.77036161    -0.60100
In104      In  0.12771286  0.72633733  0.70331852     1.36900
C105        C  0.14138291  0.75126950  0.73007146     0.77600
O106        O  0.10146742  0.72396425  0.72381491    -0.60900
O107        O  0.10612913  0.70076004  0.70365005    -0.51800
C108        C  0.11952634  0.74338981  0.66894841     0.70200
O109        O  0.11229342  0.74906662  0.68496182    -0.46700
C110        C  0.15996916  0.70418266  0.70188181     0.74900
O111        O  0.13671680  0.75687409  0.71303524    -0.58500
O112        O  0.14290345  0.69684956  0.70336336    -0.48600
O113        O  0.13851902  0.73311176  0.73338964    -0.55000
C114        C  0.09634084  0.70703601  0.71804039     0.85100
O115        O  0.13007201  0.72819958  0.67037572    -0.56800
O116        O  0.16039856  0.72270938  0.69995419    -0.60100
C117        C  0.48031903  0.89790289  0.20302038     0.80200
N118        N  0.48615085  0.90579250  0.18542427    -0.78100
C119        C  0.50497295  0.90312069  0.17872559     0.82600
N120        N  0.51758350  0.89208087  0.18971501    -0.78100
C121        C  0.51172113  0.88372742  0.20696612     0.82700
N122        N  0.49316339  0.88687354  0.21358377    -0.79800
C123        C  0.73209674  0.03347516  0.10200716     0.80200
N124        N  0.71416895  0.02844864  0.09441585    -0.78100
C125        C  0.70616022  0.01024276  0.09805179     0.82600
N126        N  0.71634190  0.99701062  0.10914332    -0.78100
C127        C  0.73412558  0.00193249  0.11691073     0.82700
N128        N  0.74186823  0.02018533  0.11341167    -0.79800
C129        C  0.60619816  0.80199042  0.97348678     0.80200
N130        N  0.59883526  0.81933914  0.98022955    -0.78100
C131        C  0.60358927  0.82572454  0.99856038     0.82600
N132        N  0.61615971  0.81495194  0.00988638    -0.78100
C133        C  0.62361519  0.79763140  0.00310377     0.82700
N134        N  0.61854725  0.79129172  0.98493895    -0.79800
C135        C  0.56849871  0.96308560  0.05307890    -0.02500
In136      In  0.81825178  0.86579296  0.21446065     1.36900
C137        C  0.78862662  0.85404093  0.23757429     0.77600
O138        O  0.80344901  0.89546968  0.21454029    -0.60900
O139        O  0.81210157  0.88326698  0.18710203    -0.51800
C140        C  0.85232699  0.87314179  0.23271834     0.70200
O141        O  0.84309036  0.85703943  0.23419592    -0.46700
C142        C  0.82354836  0.83508943  0.19076845     0.74900
O143        O  0.78645060  0.85899938  0.21986345    -0.58500
O144        O  0.81314724  0.83452556  0.20598291    -0.48600
O145        O  0.80589613  0.85663200  0.24398886    -0.55000
C146        C  0.80378049  0.89719902  0.19606726     0.85100
O147        O  0.84394188  0.88576068  0.22203123    -0.56800
O148        O  0.83199266  0.85146479  0.18762958    -0.60100
In149      In  0.63374161  0.77119549  0.29378885     1.36900
C150        C  0.64524777  0.74619402  0.26606218     0.77600
O151        O  0.60540983  0.77503824  0.27722222    -0.60900
O152        O  0.61712748  0.80001574  0.29195204    -0.51800
C153        C  0.62576044  0.75460098  0.32858949     0.70200
O154        O  0.62668403  0.74475151  0.31300267    -0.46700
C155        C  0.66685039  0.79276307  0.29308211     0.74900
O156        O  0.62769688  0.75201449  0.26739442    -0.58500
O157        O  0.65345634  0.79447661  0.28038425    -0.48600
O158        O  0.65629927  0.75173850  0.27982637    -0.55000
C159        C  0.60421502  0.79332530  0.28040806     0.85100
O160        O  0.62723052  0.77300732  0.32614561    -0.56800
O161        O  0.66287413  0.78063121  0.30663460    -0.60100
In162      In  0.73406551  0.69679111  0.11508661     1.36900
C163        C  0.76123603  0.72190842  0.12805227     0.77600
O164        O  0.73199599  0.71727474  0.08907712    -0.60900
O165        O  0.70711863  0.69942132  0.09580146    -0.51800
C166        C  0.75131052  0.66233061  0.10651044     0.70200
O167        O  0.75985422  0.67619851  0.11532497    -0.46700
C168        C  0.70887537  0.69685902  0.14514637     0.74900
O169        O  0.75138068  0.71070231  0.13927293    -0.58500
O170        O  0.71211294  0.71169025  0.13435536    -0.48600
O171        O  0.75787508  0.71958422  0.10997929    -0.55000
C172        C  0.71420119  0.71326876  0.08547115     0.85100
O173        O  0.73387316  0.66618880  0.10154699    -0.56800
O174        O  0.71831763  0.68162047  0.14033310    -0.60100
C175        C  0.92224371  0.20286318  0.45818003     0.80200
N176        N  0.93090322  0.18614986  0.46505952    -0.78100
C177        C  0.92798912  0.18034104  0.48398145     0.82600
N178        N  0.91615698  0.19118600  0.49591317    -0.78100
C179        C  0.90743749  0.20792492  0.48905985     0.82700
N180        N  0.91047936  0.21362254  0.47016100    -0.79800
C181        C  0.81224671  0.96282739  0.60662303     0.80200
N182        N  0.83076524  0.96678634  0.59975406    -0.78100
C183        C  0.83929629  0.98487290  0.60256979     0.82600
N184        N  0.82901490  0.99887648  0.61252943    -0.78100
C185        C  0.81070998  0.99499481  0.61983454     0.82700
N186        N  0.80242895  0.97698680  0.61671565    -0.79800
C187        C  0.06212470  0.12878226  0.67282420     0.80200
N188        N  0.05518167  0.11819429  0.65729145    -0.78100
C189        C  0.03655345  0.12143672  0.65048054     0.82600
N190        N  0.02501687  0.13515055  0.65934876    -0.78100
C191        C  0.03183416  0.14554264  0.67498165     0.82700
N192        N  0.05034425  0.14220224  0.68163671    -0.79800
C193        C  0.96526450  0.04583634  0.54229009    -0.02500
In194      In  0.91374804  0.24468684  0.77836900     1.36900
C195        C  0.89713191  0.27007550  0.75342222     0.77600
O196        O  0.93875685  0.24654327  0.75683478    -0.60900
O197        O  0.93484048  0.21966992  0.77232868    -0.51800
C198        C  0.92639401  0.25832321  0.81290551     0.70200
O199        O  0.93191801  0.26556361  0.79676078    -0.46700
C200        C  0.88276404  0.22039868  0.78158291     0.74900
O201        O  0.90264944  0.27520733  0.77035920    -0.58500
O202        O  0.90019771  0.21430721  0.77969706    -0.48600
O203        O  0.90027756  0.25220278  0.74938731    -0.55000
C204        C  0.94417209  0.22893620  0.75914525     0.85100
O205        O  0.91469745  0.24389665  0.81141697    -0.56800
O206        O  0.88142372  0.23890538  0.78337880    -0.60100
In207      In  0.80620386  0.31176374  0.60744106     1.36900
C208        C  0.78268001  0.28265445  0.62060802     0.77600
O209        O  0.80705129  0.29019431  0.58235213    -0.60900
O210        O  0.83351473  0.30521603  0.58974175    -0.51800
C211        C  0.78923647  0.34587890  0.59643587     0.70200
O212        O  0.78896566  0.33939848  0.61375516    -0.46700
C213        C  0.83085379  0.32046318  0.63693243     0.74900
O214        O  0.77639627  0.29637209  0.60967748    -0.58500
O215        O  0.83585236  0.32188921  0.61913490    -0.48600
O216        O  0.80076311  0.28390071  0.62464877    -0.55000
C217        C  0.82523314  0.29240944  0.57912266     0.85100
O218        O  0.79783297  0.33472506  0.58449216    -0.56800
O219        O  0.81304474  0.31566119  0.63948196    -0.60100
In220      In  0.73070179  0.13439555  0.71730870     1.36900
C221        C  0.75875223  0.15209676  0.73897510     0.77600
O222        O  0.75028539  0.10764331  0.71646928    -0.60900
O223        O  0.73218464  0.11338670  0.69185822    -0.51800
C224        C  0.69720203  0.12153202  0.73572364     0.70200
O225        O  0.71407856  0.12068145  0.74326727    -0.46700
C226        C  0.73145976  0.16281166  0.68952733     0.74900
O227        O  0.74246043  0.16014218  0.73524754    -0.58500
O228        O  0.73719873  0.14538980  0.68670542    -0.48600
O229        O  0.76017013  0.13469139  0.73267574    -0.55000
C230        C  0.74530606  0.10257806  0.69936777     0.85100
O231        O  0.69732264  0.12934666  0.71890720    -0.56800
O232        O  0.72371289  0.16537763  0.70619430    -0.60100
C233        C  0.40752521  0.18921421  0.03912137     0.80200
N234        N  0.39530482  0.19940934  0.02705694    -0.78100
C235        C  0.39079181  0.19233273  0.00900055     0.82600
N236        N  0.39873245  0.17498296  0.00296520    -0.78100
C237        C  0.41096863  0.16470104  0.01498994     0.82700
N238        N  0.41540195  0.17186504  0.03305853    -0.79800
C239        C  0.31806560  0.97739229  0.89054955     0.80200
N240        N  0.30920619  0.99060672  0.87838496    -0.78100
C241        C  0.31741384  0.00869125  0.87504351     0.82600
N242        N  0.33484542  0.01352007  0.88373610    -0.78100
C243        C  0.34386981  0.00048963  0.89609561     0.82700
N244        N  0.33531276  0.98246193  0.89944142    -0.79800
C245        C  0.56993584  0.09273125  0.80571724     0.80200
N246        N  0.55756436  0.10395427  0.79478143    -0.78100
C247        C  0.53874357  0.10713975  0.80058073     0.82600
N248        N  0.53208778  0.09875065  0.81750995    -0.78100
C249        C  0.54417961  0.08729485  0.82863515     0.82700
N250        N  0.56329220  0.08447149  0.82286072    -0.79800
C251        C  0.47659656  0.04173345  0.95653003    -0.02500
In252      In  0.22680731  0.12965317  0.76324931     1.36900
C253        C  0.25592897  0.14284781  0.74066929     0.77600
O254        O  0.22657045  0.16133512  0.77195353    -0.60900
O255        O  0.22013116  0.13983645  0.79394526    -0.51800
C256        C  0.19185207  0.12401662  0.74531612     0.70200
O257        O  0.20807759  0.12415933  0.73631259    -0.46700
C258        C  0.24513945  0.10092100  0.78307163     0.74900
O259        O  0.25352786  0.12466280  0.74426521    -0.58500
O260        O  0.23230410  0.09704102  0.77014820    -0.48600
O261        O  0.24230946  0.15380146  0.74674980    -0.55000
C262        C  0.22353884  0.15777165  0.78988291     0.85100
O263        O  0.19360855  0.12548399  0.76364802    -0.56800
O264        O  0.24812025  0.11906111  0.78556683    -0.60100
In265      In  0.41905698  0.22112138  0.71219851     1.36900
C266        C  0.40384186  0.24514248  0.73879160     0.77600
O267        O  0.39673742  0.20524589  0.69321670    -0.60900
O268        O  0.39597211  0.20053168  0.72396681    -0.51800
C269        C  0.42920812  0.24037209  0.67883639     0.70200
O270        O  0.43527178  0.22332054  0.68312243    -0.46700
C271        C  0.44761565  0.19969988  0.72856574     0.74900
O272        O  0.42153895  0.23953248  0.73939990    -0.58500
O273        O  0.43464113  0.19234182  0.71751739    -0.48600
O274        O  0.39447810  0.23957824  0.72383842    -0.55000
C275        C  0.38805640  0.19724193  0.70761328     0.85100
O276        O  0.41950413  0.24821320  0.69244217    -0.56800
O277        O  0.44674424  0.21823968  0.73039956    -0.60100
In278      In  0.30395713  0.29564935  0.88134724     1.36900
C279        C  0.27988628  0.27085270  0.86281402     0.77600
O280        O  0.32524584  0.31129953  0.86073941    -0.60900
O281        O  0.32707757  0.28025800  0.86402258    -0.51800
C282        C  0.28573921  0.33008663  0.88841723     0.70200
O283        O  0.27777597  0.31581295  0.87965272    -0.46700
C284        C  0.31650649  0.27853383  0.91438081     0.74900
O285        O  0.28734563  0.28581984  0.85442805    -0.58500
O286        O  0.32772363  0.28857957  0.90335674    -0.48600
O287        O  0.28421602  0.26916046  0.88071436    -0.55000
C288        C  0.33350775  0.29552502  0.85547785     0.85100
O289        O  0.30311197  0.32666829  0.89397715    -0.56800
O290        O  0.29860193  0.27885158  0.90950062    -0.60100
C291        C  0.21732240  0.03273258  0.39795581     0.80200
N292        N  0.22776693  0.01931412  0.38752145    -0.78100
C293        C  0.22061491  0.00078723  0.38457005     0.82600
N294        N  0.20262579  0.99566904  0.39199937    -0.78100
C295        C  0.19189233  0.00904052  0.40237440     0.82700
N296        N  0.19935784  0.02753505  0.40536174    -0.79800
C297        C  0.98031025  0.88059382  0.30524368     0.80200
N298        N  0.98526900  0.88986975  0.32220379    -0.78100
C299        C  0.00359903  0.88769661  0.33004539     0.82600
N300        N  0.01678576  0.87585026  0.32074064    -0.78100
C301        C  0.01166287  0.86603602  0.30412095     0.82700
N302        N  0.99349564  0.86862023  0.29638835    -0.79800
C303        C  0.10193085  0.80372152  0.53535383     0.80200
N304        N  0.11371854  0.79391110  0.52268093    -0.78100
C305        C  0.11588770  0.79997603  0.50383131     0.82600
N306        N  0.10613005  0.81635057  0.49759184    -0.78100
C307        C  0.09400180  0.82621366  0.51008094     0.82700
N308        N  0.09207110  0.81997962  0.52901771    -0.79800
C309        C  0.05580202  0.96051737  0.45123643    -0.02500
In310      In  0.13670771  0.76582595  0.20890133     1.36900
C311        C  0.14647011  0.74358962  0.23983561     0.77600
O312        O  0.16911750  0.77133761  0.20735416    -0.60900
O313        O  0.15036635  0.79613799  0.20456989    -0.51800
C314        C  0.13121615  0.75058397  0.17290139     0.70200
O315        O  0.13502145  0.74004645  0.18769383    -0.46700
C316        C  0.10746199  0.78529202  0.22593989     0.74900
O317        O  0.15868477  0.74984271  0.22734228    -0.58500
O318        O  0.12518289  0.79090551  0.22648757    -0.48600
O319        O  0.12871942  0.74665586  0.23535440    -0.55000
C320        C  0.16780163  0.78986464  0.20596185     0.85100
O321        O  0.12899970  0.76859421  0.17681892    -0.56800
O322        O  0.10429115  0.77006524  0.21567266    -0.60100
In323      In  0.22947702  0.69738566  0.39674614     1.36900
C324        C  0.25489226  0.72393526  0.38245866     0.77600
O325        O  0.21134202  0.68166139  0.37333211    -0.60900
O326        O  0.20904205  0.71263170  0.37644479    -0.51800
C327        C  0.24742988  0.66298474  0.40602294     0.70200
O328        O  0.25244351  0.67384203  0.39183413    -0.46700
C329        C  0.20704845  0.71434963  0.42378165     0.74900
O330        O  0.24714105  0.71045600  0.37234674    -0.58500
O331        O  0.20099978  0.70004781  0.41351104    -0.48600
O332        O  0.25150158  0.72251692  0.40067474    -0.55000
C333        C  0.20401189  0.69757289  0.36697113     0.85100
O334        O  0.23359378  0.66999573  0.41615667    -0.56800
O335        O  0.22522969  0.71824142  0.42197322    -0.60100
In336      In  0.31239924  0.87143753  0.28489868     1.36900
C337        C  0.28806646  0.85497480  0.25875488     0.77600
O338        O  0.32434572  0.84394434  0.29953117    -0.60900
O339        O  0.29611427  0.85414909  0.30771043    -0.51800
C340        C  0.34765185  0.88211419  0.26919047     0.70200
O341        O  0.33164381  0.88282696  0.25984500    -0.46700
C342        C  0.29768387  0.90184023  0.30513414     0.74900
O343        O  0.28654267  0.87265787  0.26431465    -0.58500
O344        O  0.31151041  0.89127898  0.31156939    -0.48600
O345        O  0.30303702  0.84619770  0.26532346    -0.55000
C346        C  0.30915111  0.84118799  0.30992673     0.85100
O347        O  0.34550391  0.87658046  0.28672999    -0.56800
O348        O  0.29246271  0.89784346  0.28786521    -0.60100
C349        C  0.05595236  0.39591994  0.19481551     0.80200
N350        N  0.05070899  0.40337009  0.17699164    -0.78100
C351        C  0.03153576  0.40266412  0.17104139     0.82600
N352        N  0.01774625  0.39435029  0.18308691    -0.78100
C353        C  0.02294668  0.38661308  0.20073838     0.82700
N354        N  0.04205750  0.38742505  0.20657122    -0.79800
C355        C  0.93704627  0.30565905  0.95137348     0.80200
N356        N  0.92719046  0.29356643  0.96403460    -0.78100
C357        C  0.92393407  0.29906045  0.98283246     0.82600
N358        N  0.93086468  0.31678939  0.98922144    -0.78100
C359        C  0.94123975  0.32886684  0.97688328     0.82700
N360        N  0.94404528  0.32342435  0.95783919    -0.79800
C361        C  0.82027924  0.53132046  0.10240119     0.80200
N362        N  0.83795433  0.52664735  0.09432294    -0.78100
C363        C  0.84527902  0.50795202  0.09649271     0.82600
N364        N  0.83466302  0.49418914  0.10669029    -0.78100
C365        C  0.81700705  0.49885886  0.11484060     0.82700
N366        N  0.80993731  0.51755601  0.11270196    -0.79800
C367        C  0.97826130  0.46142065  0.04211539    -0.02500
In368      In  0.81803095  0.20119380  0.10207818     1.36900
C369        C  0.79244272  0.22808653  0.11466385     0.77600
O370        O  0.83366260  0.18577367  0.12704065    -0.60900
O371        O  0.83725464  0.21677570  0.12363344    -0.51800
C372        C  0.80060954  0.16623420  0.09592492     0.70200
O373        O  0.79110538  0.18207688  0.09747126    -0.46700
C374        C  0.83868540  0.21505017  0.07158553     0.74900
O375        O  0.79676251  0.21285144  0.12442428    -0.58500
O376        O  0.84650944  0.20895293  0.08719184    -0.48600
O377        O  0.80042469  0.22900760  0.09796000    -0.55000
C378        C  0.84101961  0.20157692  0.13364716     0.85100
O379        O  0.81908481  0.16835803  0.09626801    -0.56800
O380        O  0.82038568  0.21183747  0.07048368    -0.60100
In381      In  0.72221036  0.36644638  0.21071897     1.36900
C382        C  0.74359607  0.34797054  0.23772677     0.77600
O383        O  0.71135547  0.34639374  0.18628028    -0.60900
O384        O  0.74189564  0.34756140  0.19259792    -0.51800
C385        C  0.68771205  0.37221576  0.22969825     0.70200
O386        O  0.70403176  0.37876591  0.23564875    -0.46700
C387        C  0.73674913  0.39902941  0.19295524     0.74900
O388        O  0.72911659  0.33978400  0.22935556    -0.58500
O389        O  0.74189643  0.39340722  0.20978105    -0.48600
O390        O  0.74652237  0.36576878  0.23288503    -0.55000
C391        C  0.72841178  0.34024859  0.18218193     0.85100
O392        O  0.68890239  0.36347299  0.21346688    -0.56800
O393        O  0.72253979  0.38925724  0.18596421    -0.60100
In394      In  0.89933047  0.27720296  0.29007125     1.36900
C395        C  0.89153187  0.25528856  0.25872671     0.77600
O396        O  0.86641992  0.27390702  0.28942883    -0.60900
O397        O  0.87871954  0.30066862  0.30032672    -0.51800
C398        C  0.91241650  0.26150895  0.32381424     0.70200
O399        O  0.91938966  0.25691453  0.30732250    -0.46700
C400        C  0.92492728  0.30399375  0.27643352     0.74900
O401        O  0.89202852  0.24794560  0.27579912    -0.58500
O402        O  0.90734964  0.30804471  0.28057155    -0.48600
O403        O  0.89598600  0.27333868  0.25777071    -0.55000
C404        C  0.86339589  0.29131263  0.29523099     0.85100
O405        O  0.89899044  0.27421219  0.32287193    -0.56800
O406        O  0.92991891  0.28653415  0.28056312    -0.60100
C407        C  0.41894715  0.29831938  0.54220601     0.80200
N408        N  0.42838921  0.31439309  0.53442116    -0.78100
C409        C  0.42605566  0.31915905  0.51512542     0.82600
N410        N  0.41402714  0.30789514  0.50367940    -0.78100
C411        C  0.40455256  0.29178496  0.51132165     0.82700
N412        N  0.40705360  0.28710819  0.53058834    -0.79800
C413        C  0.31506036  0.53233702  0.40910170     0.80200
N414        N  0.30420528  0.52079951  0.39687283    -0.78100
C415        C  0.31127180  0.50329050  0.39042701     0.82600
N416        N  0.32945035  0.49731217  0.39612636    -0.78100
C417        C  0.34057624  0.50874705  0.40821398     0.82700
N418        N  0.33330834  0.52625953  0.41477512    -0.79800
C419        C  0.55583604  0.38079777  0.29891221     0.80200
N420        N  0.54186795  0.37089135  0.28850715    -0.78100
C421        C  0.52315765  0.36915460  0.29536412     0.82600
N422        N  0.51830274  0.37748313  0.31281475    -0.78100
C423        C  0.53212320  0.38725485  0.32364222     0.82700
N424        N  0.55091552  0.38890972  0.31655397    -0.79800
C425        C  0.47332985  0.44889865  0.44906456    -0.02500
In426      In  0.29705092  0.20399686  0.38641486     1.36900
C427        C  0.27227183  0.23346998  0.37821168     0.77600
O428        O  0.32425492  0.20206770  0.40539671    -0.60900
O429        O  0.30149097  0.22116447  0.41445388    -0.51800
C430        C  0.28172913  0.16764161  0.39245186     0.70200
O431        O  0.27410893  0.18315737  0.39909243    -0.46700
C432        C  0.31611427  0.20479695  0.35228680     0.74900
O433        O  0.26645500  0.21691907  0.38471425    -0.58500
O434        O  0.32462778  0.20711199  0.36853686    -0.48600
O435        O  0.29071345  0.23486618  0.37630963    -0.55000
C436        C  0.31871240  0.21504281  0.41730931     0.85100
O437        O  0.29751202  0.17073674  0.38318070    -0.56800
O438        O  0.29781721  0.20144449  0.35341921    -0.60100
In439      In  0.39197869  0.27179322  0.20335880     1.36900
C440        C  0.38501930  0.24454178  0.23065075     0.77600
O441        O  0.41629559  0.29487312  0.19908602    -0.60900
O442        O  0.40913748  0.28535809  0.22782854    -0.51800
C443        C  0.40212769  0.25524185  0.16933693     0.70200
O444        O  0.40459721  0.24677305  0.18563684    -0.46700
C445        C  0.35815729  0.29191544  0.20274326     0.74900
O446        O  0.40228773  0.24984669  0.22601476    -0.58500
O447        O  0.37384628  0.29841496  0.21024712    -0.48600
O448        O  0.37161224  0.25194269  0.22021991    -0.55000
C449        C  0.41964050  0.29649264  0.21724374     0.85100
O450        O  0.39524978  0.27244422  0.17051989    -0.56800
O451        O  0.35989823  0.27525152  0.19475498    -0.60100
In452      In  0.21960178  0.37996317  0.28344835     1.36900
C453        C  0.24601787  0.36654298  0.25834046     0.77600
O454        O  0.23468461  0.40967877  0.28565884    -0.60900
O455        O  0.22442126  0.39617382  0.31190932    -0.51800
C456        C  0.18615697  0.38965358  0.26484208     0.70200
O457        O  0.20207235  0.38605692  0.25610151    -0.46700
C458        C  0.21933413  0.34722014  0.30547984     0.74900
O459        O  0.22924202  0.35860059  0.26033954    -0.58500
O460        O  0.23461794  0.35701706  0.30143732    -0.48600
O461        O  0.24868274  0.38213348  0.26807208    -0.55000
C462        C  0.23397648  0.41022724  0.30413297     0.85100
O463        O  0.18755948  0.38926515  0.28329812    -0.56800
O464        O  0.20359058  0.35462091  0.29901676    -0.60100
C465        C  0.33930770  0.30278954  0.20428621     0.01300
C466        C  0.32172255  0.29292132  0.21006396     0.04100
C467        C  0.30518403  0.30397882  0.21587888    -0.11900
C468        C  0.30620164  0.32478663  0.21605776     0.23400
C469        C  0.32315051  0.33459362  0.20898713    -0.12500
C470        C  0.33948066  0.32362901  0.20267956     0.04800
C471        C  0.29081934  0.33619772  0.22638654     0.27300
C472        C  0.27407519  0.34324027  0.21638548    -0.13200
C473        C  0.25947291  0.35366077  0.22671517     0.05400
C474        C  0.26184673  0.35731868  0.24691195    -0.09200
C475        C  0.27895627  0.35087315  0.25671603     0.06200
C476        C  0.29325013  0.34008402  0.24652803    -0.13500
Br477      Br  0.32458608  0.36310337  0.20973096    -0.05600
Br478      Br  0.32049690  0.26442487  0.21189379     0.00000
Br479      Br  0.23659731  0.36361862  0.21318541     0.00500
Br480      Br  0.31607894  0.33015328  0.26025176    -0.03900
Br481      Br  0.36205774  0.33729309  0.19170744     0.00600
Br482      Br  0.28164540  0.29079489  0.22540057    -0.03200
Br483      Br  0.27123774  0.33856514  0.18865306    -0.04100
Br484      Br  0.28256052  0.35595093  0.28437636    -0.00100
C485        C  0.25885696  0.24980485  0.37246000     0.01300
C486        C  0.26497267  0.26968095  0.37501426     0.04100
C487        C  0.25471728  0.28508238  0.36564491    -0.11900
C488        C  0.23783980  0.28083167  0.35438467     0.23400
C489        C  0.23026898  0.26143381  0.35390240    -0.12500
C490        C  0.24086227  0.24584019  0.36263726     0.04800
C491        C  0.23009815  0.29607508  0.34072968     0.27300
C492        C  0.21549783  0.30953815  0.34666096    -0.13200
C493        C  0.21036444  0.32546564  0.33425004     0.05400
C494        C  0.22052095  0.32833878  0.31636986    -0.09200
C495        C  0.23380931  0.31384693  0.30977482     0.06200
C496        C  0.23835890  0.29761904  0.32180620    -0.13500
Br497      Br  0.20590923  0.25632688  0.34018903    -0.05600
Br498      Br  0.28718112  0.27606024  0.39162508     0.00000
Br499      Br  0.19001137  0.34359141  0.34200387     0.00500
Br500      Br  0.25623207  0.27759581  0.31250566    -0.03900
Br501      Br  0.23130659  0.21911624  0.35934232     0.00600
Br502      Br  0.26434902  0.31197861  0.36726202    -0.03200
Br503      Br  0.20312198  0.30640168  0.37196414    -0.04100
Br504      Br  0.24555783  0.31593155  0.28400329    -0.00100
C505        C  0.32678703  0.20665791  0.33350306     0.01300
C506        C  0.32203925  0.22205836  0.32034315     0.04100
C507        C  0.33358563  0.22520260  0.30344036    -0.11900
C508        C  0.34984516  0.21291577  0.29960066     0.23400
C509        C  0.35415995  0.19708227  0.31234672    -0.12500
C510        C  0.34265960  0.19398727  0.32932758     0.04800
C511        C  0.36239858  0.21712948  0.28223481     0.27300
C512        C  0.35699926  0.20965179  0.26375107    -0.13200
C513        C  0.36615423  0.21707055  0.24667830     0.05400
C514        C  0.38033792  0.23233701  0.24806330    -0.09200
C515        C  0.38705768  0.23845058  0.26670900     0.06200
C516        C  0.37817348  0.23069101  0.28378088    -0.13500
Br517      Br  0.37583958  0.17979003  0.30646745    -0.05600
Br518      Br  0.30038493  0.23955274  0.32593777     0.00000
Br519      Br  0.35905519  0.20662203  0.22134518     0.00500
Br520      Br  0.38645001  0.23982613  0.30929158    -0.03900
Br521      Br  0.34820060  0.17204135  0.34660209     0.00600
Br522      Br  0.32742206  0.24661500  0.28561701    -0.03200
Br523      Br  0.33598532  0.19040471  0.26186483    -0.04100
Br524      Br  0.40665487  0.25918252  0.26911855    -0.00100
C525        C  0.50795039  0.35936149  0.28318571     0.01300
C526        C  0.49720218  0.37057787  0.26945690     0.04100
C527        C  0.48310159  0.36134382  0.25732081    -0.11900
C528        C  0.47958896  0.34080227  0.25890803     0.23400
C529        C  0.49040800  0.32955800  0.27263687    -0.12500
C530        C  0.50461654  0.33880436  0.28468200     0.04800
C531        C  0.46392628  0.33112993  0.24685143     0.27300
C532        C  0.44417793  0.33142659  0.25328416    -0.13200
C533        C  0.42951280  0.32105640  0.24285228     0.05400
C534        C  0.43448607  0.31012654  0.22593358    -0.09200
C535        C  0.45400708  0.31098077  0.21870340     0.06200
C536        C  0.46873145  0.32122491  0.22930701    -0.13500
Br537      Br  0.48552772  0.30149120  0.27501888    -0.05600
Br538      Br  0.50189660  0.39868133  0.26737131     0.00000
Br539      Br  0.40236725  0.32260639  0.25136732     0.00500
Br540      Br  0.49568863  0.32107714  0.22027794    -0.03900
Br541      Br  0.51954498  0.32336506  0.30324180     0.00600
Br542      Br  0.46849231  0.37683125  0.23856818    -0.03200
Br543      Br  0.43734605  0.34564463  0.27680436    -0.04100
Br544      Br  0.46087806  0.29752031  0.19475754    -0.00100
C545        C  0.48484873  0.44244469  0.42930243     0.01300
C546        C  0.50184168  0.42956845  0.43064878     0.04100
C547        C  0.51052497  0.42083251  0.41387762    -0.11900
C548        C  0.50232743  0.42343095  0.39526847     0.23400
C549        C  0.48604499  0.43576046  0.39312695    -0.12500
C550        C  0.47851026  0.44656665  0.40927086     0.04800
C551        C  0.51127303  0.41376686  0.37762884     0.27300
C552        C  0.52357839  0.42473200  0.36479815    -0.13200
C553        C  0.53097802  0.41605444  0.34745533     0.05400
C554        C  0.52636963  0.39611252  0.34292065    -0.09200
C555        C  0.51509993  0.38484679  0.35654416     0.06200
C556        C  0.50723437  0.39374602  0.37351638    -0.13500
Br557      Br  0.47335828  0.43662207  0.36755773    -0.05600
Br558      Br  0.51578351  0.42452489  0.45469702     0.00000
Br559      Br  0.54668345  0.43203568  0.32972871     0.00500
Br560      Br  0.49048411  0.37864551  0.39105539    -0.03900
Br561      Br  0.46084892  0.46698637  0.40081752     0.00600
Br562      Br  0.53401122  0.40478414  0.41600999    -0.03200
Br563      Br  0.52999759  0.45186405  0.37101456    -0.04100
Br564      Br  0.51142177  0.35677791  0.35279455    -0.00100
C565        C  0.29905308  0.49057910  0.37767666     0.01300
C566        C  0.29325967  0.47161167  0.38425716     0.04100
C567        C  0.28239061  0.45905150  0.37183996    -0.11900
C568        C  0.27649937  0.46572839  0.35311284     0.23400
C569        C  0.28152918  0.48503001  0.34688254    -0.12500
C570        C  0.29306992  0.49732686  0.35899569     0.04800
C571        C  0.26536555  0.45228581  0.33985610     0.27300
C572        C  0.27552376  0.44111272  0.32573001    -0.13200
C573        C  0.26512142  0.42790468  0.31355029     0.05400
C574        C  0.24452230  0.42538601  0.31581321    -0.09200
C575        C  0.23439863  0.43658416  0.32997666     0.06200
C576        C  0.24473375  0.45034993  0.34162402    -0.13500
Br577      Br  0.27248598  0.49454007  0.32174631    -0.05600
Br578      Br  0.29923219  0.46330939  0.41074657     0.00000
Br579      Br  0.27947275  0.41242102  0.29463570     0.00500
Br580      Br  0.23069605  0.46687879  0.35981584    -0.03900
Br581      Br  0.30133989  0.52308157  0.34964513     0.00600
Br582      Br  0.27574673  0.43258923  0.38038407    -0.03200
Br583      Br  0.30382213  0.44368252  0.32342920    -0.04100
Br584      Br  0.20631849  0.43329291  0.33322064    -0.00100
C585        C  0.36043602  0.50193585  0.41409820     0.01300
C586        C  0.37478089  0.49786108  0.39962899     0.04100
C587        C  0.39316826  0.48995882  0.40506529    -0.11900
C588        C  0.39737394  0.48622961  0.42499078     0.23400
C589        C  0.38318116  0.49054190  0.43945502    -0.12500
C590        C  0.36477176  0.49835241  0.43404768     0.04800
C591        C  0.41651603  0.47744141  0.43097352     0.27300
C592        C  0.41761907  0.45721944  0.43485174    -0.13200
C593        C  0.43384684  0.44975986  0.44516811     0.05400
C594        C  0.45267355  0.45984674  0.44459223    -0.09200
C595        C  0.45108271  0.48101462  0.44061814     0.06200
C596        C  0.43270152  0.48953418  0.43549675    -0.13500
Br597      Br  0.38897921  0.48525696  0.46672517    -0.05600
Br598      Br  0.36950448  0.50361426  0.37233894     0.00000
Br599      Br  0.42490203  0.43294618  0.46643543     0.00500
Br600      Br  0.42933247  0.51793371  0.43419885    -0.03900
Br601      Br  0.34515444  0.50301241  0.45397726     0.00600
Br602      Br  0.41243503  0.48388362  0.38519569    -0.03200
Br603      Br  0.39532193  0.44020323  0.42911704    -0.04100
Br604      Br  0.47294773  0.49952261  0.43863309    -0.00100
C605        C  0.33197889  0.22392768  0.43203873     0.01300
C606        C  0.34760363  0.23619214  0.42556887     0.04100
C607        C  0.35881032  0.24702118  0.43920918    -0.11900
C608        C  0.35534943  0.24466311  0.45950620     0.23400
C609        C  0.34040821  0.23150469  0.46602611    -0.12500
C610        C  0.32834851  0.22161811  0.45227985     0.04800
C611        C  0.36727332  0.25634193  0.47379067     0.27300
C612        C  0.38393869  0.24792064  0.48281583    -0.13200
C613        C  0.39583403  0.25934034  0.49548338     0.05400
C614        C  0.39147323  0.27946456  0.49876997    -0.09200
C615        C  0.37466589  0.28781218  0.48984756     0.06200
C616        C  0.36256704  0.27626698  0.47750364    -0.13500
Br617      Br  0.33643072  0.22713410  0.49373590    -0.05600
Br618      Br  0.35319334  0.23877829  0.39785455     0.00000
Br619      Br  0.41858931  0.24753507  0.50766790     0.00500
Br620      Br  0.33966756  0.28780110  0.46527214    -0.03900
Br621      Br  0.30692088  0.20484336  0.46102316     0.00600
Br622      Br  0.37838065  0.26577190  0.43003886    -0.03200
Br623      Br  0.39084399  0.22090605  0.47711596    -0.04100
Br624      Br  0.36775697  0.31491786  0.49501336    -0.00100
C625        C  0.43484593  0.33765882  0.50709155     0.01300
C626        C  0.45370548  0.33783531  0.49832482     0.04100
C627        C  0.46148131  0.35553563  0.49017348    -0.11900
C628        C  0.45014069  0.37299637  0.49008931     0.23400
C629        C  0.43151546  0.37282028  0.49944078    -0.12500
C630        C  0.42402312  0.35529931  0.50801975     0.04800
C631        C  0.45754818  0.39131979  0.47977494     0.27300
C632        C  0.46761282  0.40605890  0.49009729    -0.13200
C633        C  0.47488262  0.42332758  0.48045236     0.05400
C634        C  0.46935861  0.42796493  0.46025039    -0.09200
C635        C  0.46002700  0.41158543  0.44986663     0.06200
C636        C  0.45489200  0.39360910  0.45953622    -0.13500
Br637      Br  0.41612157  0.39652112  0.50080178    -0.05600
Br638      Br  0.46870702  0.31376237  0.49728414     0.00000
Br639      Br  0.49486523  0.43665333  0.49597642     0.00500
Br640      Br  0.44286385  0.37186621  0.44532982    -0.03900
Br641      Br  0.39879462  0.35533830  0.52119865     0.00600
Br642      Br  0.48779336  0.35608637  0.47938549    -0.03200
Br643      Br  0.47198823  0.40166942  0.51793636    -0.04100
Br644      Br  0.45081217  0.41296954  0.42293458    -0.00100
C645        C  0.66892168  0.37429437  0.24102784     0.01300
C646        C  0.65504444  0.35850419  0.24191317     0.04100
C647        C  0.63750816  0.36041904  0.25294580    -0.11900
C648        C  0.63327726  0.37825764  0.26264393     0.23400
C649        C  0.64721033  0.39377665  0.26225611    -0.12500
C650        C  0.66500737  0.39180000  0.25168510     0.04800
C651        C  0.61388119  0.38083823  0.27272162     0.27300
C652        C  0.59764265  0.38820393  0.26216060    -0.13200
C653        C  0.57891957  0.38925307  0.27111310     0.05400
C654        C  0.57616091  0.38261562  0.29067904    -0.09200
C655        C  0.59271760  0.37632227  0.30158149     0.06200
C656        C  0.61151725  0.37561631  0.29265171    -0.13500
Br657      Br  0.64179139  0.41773403  0.27648700    -0.05600
Br658      Br  0.66015857  0.33370171  0.22893071     0.00000
Br659      Br  0.55725317  0.40056164  0.25662908     0.00500
Br660      Br  0.63415934  0.36733933  0.30757421    -0.03900
Br661      Br  0.68349698  0.41364091  0.25143643     0.00600
Br662      Br  0.61941567  0.33834846  0.25547969    -0.03200
Br663      Br  0.60116148  0.39684641  0.23531270    -0.04100
Br664      Br  0.58965004  0.36748230  0.32838063    -0.00100
C665        C  0.75697255  0.33736217  0.25113969     0.01300
C666        C  0.76677677  0.32029916  0.24452886     0.04100
C667        C  0.78195716  0.31200256  0.25585568    -0.11900
C668        C  0.78746527  0.32077909  0.27378142     0.23400
C669        C  0.77668528  0.33689635  0.28109522    -0.12500
C670        C  0.76157016  0.34530924  0.26969679     0.04800
C671        C  0.80635832  0.31497585  0.28306809     0.27300
C672        C  0.80784964  0.29724005  0.29389064    -0.13200
C673        C  0.82654570  0.29001540  0.29924621     0.05400
C674        C  0.84377329  0.30062367  0.29387255    -0.09200
C675        C  0.84207267  0.31915132  0.28431753     0.06200
C676        C  0.82342942  0.32625380  0.27894819    -0.13500
Br677      Br  0.78339401  0.34793470  0.30628977    -0.05600
Br678      Br  0.76104236  0.30946664  0.21897655     0.00000
Br679      Br  0.82848579  0.26552764  0.31377075     0.00500
Br680      Br  0.82141675  0.35080941  0.26443097    -0.03900
Br681      Br  0.74736009  0.36789858  0.27934615     0.00600
Br682      Br  0.79615265  0.28935935  0.24615201    -0.03200
Br683      Br  0.78427024  0.28245217  0.30035967    -0.04100
Br684      Br  0.86519702  0.33404657  0.27629251    -0.00100
C685        C  0.85210014  0.20286326  0.15222357     0.01300
C686        C  0.84385183  0.19510735  0.16972062     0.04100
C687        C  0.85170406  0.20067460  0.18799123    -0.11900
C688        C  0.86768834  0.21402192  0.18877861     0.23400
C689        C  0.87709379  0.22021792  0.17135883    -0.12500
C690        C  0.86935081  0.21460825  0.15309273     0.04800
C691        C  0.87305497  0.22359728  0.20752717     0.27300
C692        C  0.86354411  0.24123184  0.21287296    -0.13200
C693        C  0.86972504  0.25164371  0.22956913     0.05400
C694        C  0.88516291  0.24416082  0.24128897    -0.09200
C695        C  0.89444249  0.22632950  0.23611861     0.06200
C696        C  0.88838520  0.21605927  0.21921464    -0.13500
Br697      Br  0.89991163  0.23738308  0.17265111    -0.05600
Br698      Br  0.82053035  0.17867685  0.16906225     0.00000
Br699      Br  0.85675114  0.27609052  0.23634080     0.00500
Br700      Br  0.90126604  0.19193267  0.21167225    -0.03900
Br701      Br  0.88228299  0.22329142  0.12929265     0.00600
Br702      Br  0.83982295  0.19115189  0.21202233    -0.03200
Br703      Br  0.84208237  0.25120032  0.19712990    -0.04100
Br704      Br  0.91645343  0.21683094  0.25125486    -0.00100
C705        C  0.73277086  0.32539251  0.16686107     0.01300
C706        C  0.72193834  0.30748672  0.16577968     0.04100
C707        C  0.72902781  0.29178667  0.15423276    -0.11900
C708        C  0.74709815  0.29378607  0.14416923     0.23400
C709        C  0.75678789  0.31226538  0.14363993    -0.12500
C710        C  0.74952779  0.32809568  0.15477045     0.04800
C711        C  0.75746552  0.27600563  0.13677143     0.27300
C712        C  0.77140973  0.26668945  0.14896506    -0.13200
C713        C  0.78273701  0.25094200  0.14180736     0.05400
C714        C  0.77976292  0.24396947  0.12249937    -0.09200
C715        C  0.76519297  0.25278175  0.11057718     0.06200
C716        C  0.75420053  0.26888844  0.11764874    -0.13500
Br717      Br  0.78068184  0.31545520  0.12848941    -0.05600
Br718      Br  0.69851154  0.30354809  0.18144756     0.00000
Br719      Br  0.80325339  0.24007363  0.15822715     0.00500
Br720      Br  0.73471273  0.28128505  0.10121174    -0.03900
Br721      Br  0.76263509  0.35352885  0.15341509     0.00600
Br722      Br  0.71465405  0.26711496  0.15289902    -0.03200
Br723      Br  0.77511656  0.27577102  0.17556536    -0.04100
Br724      Br  0.75963015  0.24227988  0.08486740    -0.00100
C725        C  0.74771390  0.41458133  0.18179674     0.01300
C726        C  0.73779124  0.43023473  0.17232136     0.04100
C727        C  0.74852893  0.44451570  0.16136134    -0.11900
C728        C  0.76918789  0.44292952  0.15933530     0.23400
C729        C  0.77903334  0.42710148  0.16851729    -0.12500
C730        C  0.76844271  0.41317481  0.17990227     0.04800
C731        C  0.78080272  0.45781400  0.14773205     0.27300
C732        C  0.78189971  0.45649320  0.12707206    -0.13200
C733        C  0.79409342  0.46965048  0.11631880     0.05400
C734        C  0.80539876  0.48410503  0.12613782    -0.09200
C735        C  0.80456609  0.48521514  0.14677233     0.06200
C736        C  0.79201709  0.47242233  0.15749732    -0.13500
Br737      Br  0.80714621  0.42425392  0.16501585    -0.05600
Br738      Br  0.70958564  0.43254175  0.17494139     0.00000
Br739      Br  0.79537037  0.46801286  0.08808714     0.00500
Br740      Br  0.78997627  0.47499503  0.18561465    -0.03900
Br741      Br  0.78251167  0.39154566  0.19200857     0.00600
Br742      Br  0.73502560  0.46639472  0.14923383    -0.03200
Br743      Br  0.76669026  0.43661285  0.11352673    -0.04100
Br744      Br  0.82149230  0.50363201  0.16036759    -0.00100
C745        C  0.86485757  0.50292863  0.08812784     0.01300
C746        C  0.86849637  0.50489511  0.06778992     0.04100
C747        C  0.88695714  0.49969226  0.05989083    -0.11900
C748        C  0.90191191  0.49225482  0.07218528     0.23400
C749        C  0.89835073  0.49025345  0.09249379    -0.12500
C750        C  0.87999736  0.49578325  0.10048866     0.04800
C751        C  0.92083549  0.48543514  0.06335104     0.27300
C752        C  0.92216193  0.46618804  0.05623611    -0.13200
C753        C  0.93863438  0.46046190  0.04511423     0.05400
C754        C  0.95689813  0.47149895  0.04588358    -0.09200
C755        C  0.95399667  0.49231192  0.05034342     0.06200
C756        C  0.93619830  0.49882147  0.05930982    -0.13500
Br757      Br  0.91847187  0.47938407  0.10925269    -0.05600
Br758      Br  0.84785291  0.51349298  0.05036784     0.00000
Br759      Br  0.93084364  0.44420387  0.02316330     0.00500
Br760      Br  0.93316792  0.52586910  0.06808652    -0.03900
Br761      Br  0.87587922  0.49421425  0.12850456     0.00600
Br762      Br  0.89168288  0.50196828  0.03199782    -0.03200
Br763      Br  0.90010893  0.44819115  0.05990424    -0.04100
Br764      Br  0.97325468  0.51326464  0.04631368    -0.00100
C765        C  0.91080625  0.28681812  0.99529061     0.01300
C766        C  0.91745280  0.26874495  0.00313975     0.04100
C767        C  0.90459161  0.25677608  0.01438504    -0.11900
C768        C  0.88489580  0.26259467  0.01740152     0.23400
C769        C  0.87821137  0.28062024  0.00942431    -0.12500
C770        C  0.89113258  0.29268529  0.99836380     0.04800
C771        C  0.87195679  0.25076869  0.03069278     0.27300
C772        C  0.86125701  0.23423388  0.02375695    -0.13200
C773        C  0.85028763  0.22231703  0.03699431     0.05400
C774        C  0.84981774  0.22713426  0.05711328    -0.09200
C775        C  0.85975660  0.24427585  0.06374459     0.06200
C776        C  0.87095809  0.25586557  0.05064789    -0.13500
Br777      Br  0.85154136  0.28906668  0.01430312    -0.05600
Br778      Br  0.94432932  0.26067840  0.99889321     0.00000
Br779      Br  0.83662409  0.19906436  0.02774886     0.00500
Br780      Br  0.88504172  0.27888559  0.06001468    -0.03900
Br781      Br  0.88175587  0.31708016  0.98703398     0.00600
Br782      Br  0.91412148  0.23285519  0.02655450    -0.03200
Br783      Br  0.86162817  0.22809798  0.99614873    -0.04100
Br784      Br  0.85710218  0.25282299  0.09061887    -0.00100
C785        C  0.94805420  0.34842794  0.98397789     0.01300
C786        C  0.96612656  0.35027386  0.99400134     0.04100
C787        C  0.97184192  0.36861653  0.00209034    -0.11900
C788        C  0.95899182  0.38494801  0.00122394     0.23400
C789        C  0.94086810  0.38301652  0.99119739    -0.12500
C790        C  0.93571266  0.36499992  0.98213090     0.04800
C791        C  0.96441133  0.40383012  0.01139824     0.27300
C792        C  0.96136606  0.40578948  0.03160303    -0.13200
C793        C  0.96605195  0.42371847  0.04137242     0.05400
C794        C  0.97542234  0.44029340  0.03115078    -0.09200
C795        C  0.98151066  0.43582230  0.01109989     0.06200
C796        C  0.97390585  0.41908421  0.00114071    -0.13500
Br797      Br  0.92266270  0.40470120  0.99050223    -0.05600
Br798      Br  0.98271992  0.32744897  0.99714927     0.00000
Br799      Br  0.95676648  0.42452208  0.06830118     0.00500
Br800      Br  0.97698076  0.41638340  0.97294270    -0.03900
Br801      Br  0.91155777  0.36284973  0.96734715     0.00600
Br802      Br  0.99715833  0.37139234  0.01469542    -0.03200
Br803      Br  0.94906005  0.38380778  0.04545463    -0.04100
Br804      Br  0.00353778  0.44732919  0.99666500    -0.00100
C805        C  0.00822050  0.37569267  0.21259303     0.01300
C806        C  0.00855734  0.35486191  0.21291533     0.04100
C807        C  0.99423188  0.34420363  0.22361434    -0.11900
C808        C  0.97932850  0.35431820  0.23383628     0.23400
C809        C  0.97871316  0.37515914  0.23317339    -0.12500
C810        C  0.99339763  0.38584900  0.22288992     0.04800
C811        C  0.96459542  0.34287762  0.24548843     0.27300
C812        C  0.94623659  0.33781239  0.23719392    -0.13200
C813        C  0.93303758  0.32546666  0.24759211     0.05400
C814        C  0.93816146  0.31816829  0.26635267    -0.09200
C815        C  0.95622905  0.32374326  0.27489557     0.06200
C816        C  0.96946285  0.33602223  0.26445376    -0.13500
Br817      Br  0.95748467  0.38893173  0.24595906    -0.05600
Br818      Br  0.02839269  0.34090734  0.19822696     0.00000
Br819      Br  0.90847890  0.31755971  0.23550844     0.00500
Br820      Br  0.99452745  0.34310233  0.27586061    -0.03900
Br821      Br  0.99377855  0.41435639  0.22359795     0.00600
Br822      Br  0.99472930  0.31566287  0.22400550    -0.03200
Br823      Br  0.93953278  0.34724186  0.21127182    -0.04100
Br824      Br  0.96251617  0.31500483  0.30112926    -0.00100
C825        C  0.98922386  0.45548824  0.06230280     0.01300
C826        C  0.00620137  0.44263923  0.06191377     0.04100
C827        C  0.01329564  0.43307363  0.07901084    -0.11900
C828        C  0.00418330  0.43595018  0.09714498     0.23400
C829        C  0.98861779  0.44928237  0.09851519    -0.12500
C830        C  0.98241385  0.46027226  0.08192037     0.04800
C831        C  0.01234196  0.42671263  0.11534045     0.27300
C832        C  0.00630520  0.40761339  0.12120017    -0.13200
C833        C  0.01297938  0.39953018  0.13911117     0.05400
C834        C  0.02556605  0.41068038  0.15152037    -0.09200
C835        C  0.03199476  0.42966769  0.14529499     0.06200
C836        C  0.02569509  0.43742936  0.12712188    -0.13500
Br837      Br  0.97587150  0.45247169  0.12384128    -0.05600
Br838      Br  0.02248943  0.43933655  0.03915473     0.00000
Br839      Br  0.00534564  0.37278461  0.14601220     0.00500
Br840      Br  0.03544306  0.46280943  0.11813581    -0.03900
Br841      Br  0.97002149  0.48447605  0.08949705     0.00600
Br842      Br  0.03587804  0.41569946  0.07801299    -0.03200
Br843      Br  0.98899023  0.39251405  0.10444311    -0.04100
Br844      Br  0.04829892  0.44590050  0.16206674    -0.00100
C845        C  0.16735548  0.39313297  0.25414626     0.01300
C846        C  0.14977374  0.38350729  0.26027887     0.04100
C847        C  0.13248652  0.38509897  0.24893104    -0.11900
C848        C  0.13236703  0.39676116  0.23172593     0.23400
C849        C  0.14966801  0.40679183  0.22583049    -0.12500
C850        C  0.16715449  0.40485116  0.23685707     0.04800
C851        C  0.11392931  0.39822290  0.21994256     0.27300
C852        C  0.10923516  0.38347565  0.20610104    -0.13200
C853        C  0.09040901  0.38298453  0.19734475     0.05400
C854        C  0.07646109  0.39761121  0.20192765    -0.09200
C855        C  0.08165335  0.41312912  0.21467621     0.06200
C856        C  0.10029418  0.41337742  0.22377296    -0.13500
Br857      Br  0.14934149  0.42299274  0.20244673    -0.05600
Br858      Br  0.14931669  0.36708087  0.28357432     0.00000
Br859      Br  0.08333976  0.36177736  0.17984484     0.00500
Br860      Br  0.10700177  0.43413187  0.24193121    -0.03900
Br861      Br  0.19063219  0.41881892  0.22839576     0.00600
Br862      Br  0.10894512  0.37070301  0.25651296    -0.03200
Br863      Br  0.12855539  0.36377275  0.19953932    -0.04100
Br864      Br  0.06291602  0.43376862  0.21998281    -0.00100
C865        C  0.25680715  0.64348992  0.40992404     0.01300
C866        C  0.26486371  0.63899226  0.42852561     0.04100
C867        C  0.27443377  0.62075763  0.43177588    -0.11900
C868        C  0.27632302  0.60706154  0.41637575     0.23400
C869        C  0.26787507  0.61129514  0.39794981    -0.12500
C870        C  0.25817044  0.62939073  0.39471758     0.04800
C871        C  0.28774571  0.58844802  0.41895432     0.27300
C872        C  0.30759665  0.58773374  0.41280557    -0.13200
C873        C  0.31729470  0.56942295  0.41122167     0.05400
C874        C  0.30695991  0.55166150  0.41533602    -0.09200
C875        C  0.28765504  0.55256702  0.42314546     0.06200
C876        C  0.27820069  0.57094250  0.42519463    -0.13500
Br877      Br  0.26966159  0.59207169  0.37711118    -0.05600
Br878      Br  0.26409968  0.65835091  0.44916324     0.00000
Br879      Br  0.34415320  0.56880971  0.40181334     0.00500
Br880      Br  0.25190649  0.57217066  0.43590043    -0.03900
Br881      Br  0.24621962  0.63444012  0.36949860     0.00600
Br882      Br  0.28508458  0.61442607  0.45724304    -0.03200
Br883      Br  0.32105123  0.61187473  0.40540150    -0.04100
Br884      Br  0.27395654  0.52857492  0.43079135    -0.00100
C885        C  0.26549174  0.74080997  0.37313456     0.01300
C886        C  0.25726441  0.74980492  0.35620560     0.04100
C887        C  0.26691423  0.76580714  0.34704591    -0.11900
C888        C  0.28476590  0.77309422  0.35469085     0.23400
C889        C  0.29308970  0.76425999  0.37147214    -0.12500
C890        C  0.28334951  0.74830667  0.38088373     0.04800
C891        C  0.29417721  0.79056442  0.34523877     0.27300
C892        C  0.30605839  0.78814454  0.32848104    -0.13200
C893        C  0.31181475  0.80473584  0.31721649     0.05400
C894        C  0.30614363  0.82393401  0.32311634    -0.09200
C895        C  0.29561894  0.82633330  0.34088423     0.06200
C896        C  0.28935747  0.80966705  0.35168561    -0.13500
Br897      Br  0.31801463  0.77398167  0.38117899    -0.05600
Br898      Br  0.23195349  0.74148725  0.34599695     0.00000
Br899      Br  0.32570156  0.80056612  0.29281645     0.00500
Br900      Br  0.27318107  0.81287256  0.37478371    -0.03900
Br901      Br  0.29480247  0.73664130  0.40404653     0.00600
Br902      Br  0.25555597  0.77803933  0.32397868    -0.03200
Br903      Br  0.31346039  0.76185326  0.32052496    -0.04100
Br904      Br  0.28977865  0.85242671  0.35073936    -0.00100
C905        C  0.18541353  0.80282895  0.20753993     0.01300
C906        C  0.18557772  0.81873666  0.22093794     0.04100
C907        C  0.20355382  0.82790146  0.22602631    -0.11900
C908        C  0.22143896  0.82105554  0.21805579     0.23400
C909        C  0.22112455  0.80619380  0.20364357    -0.12500
C910        C  0.20311534  0.79733074  0.19816959     0.04800
C911        C  0.24043838  0.82837667  0.22626284     0.27300
C912        C  0.24836419  0.84674386  0.22023266    -0.13200
C913        C  0.26474373  0.85490998  0.23009860     0.05400
C914        C  0.27283040  0.84509569  0.24654109    -0.09200
C915        C  0.26504105  0.82647347  0.25230908     0.06200
C916        C  0.24939130  0.81785836  0.24173482    -0.13500
Br917      Br  0.24549490  0.79723684  0.19225744    -0.05600
Br918      Br  0.16167530  0.82692570  0.23396004     0.00000
Br919      Br  0.27609917  0.87953891  0.22099032     0.00500
Br920      Br  0.23966420  0.79184294  0.24887192    -0.03900
Br921      Br  0.20265064  0.77769147  0.17769765     0.00600
Br922      Br  0.20390042  0.84910571  0.24493341    -0.03200
Br923      Br  0.23620308  0.86098236  0.19891068    -0.04100
Br924      Br  0.27377404  0.81373679  0.27616539    -0.00100
C925        C  0.15288250  0.73508031  0.25884873     0.01300
C926        C  0.14405143  0.71781068  0.26676139     0.04100
C927        C  0.15073467  0.71005341  0.28481526    -0.11900
C928        C  0.16649063  0.71925035  0.29475833     0.23400
C929        C  0.17503710  0.73668050  0.28709216    -0.12500
C930        C  0.16799379  0.74482315  0.26945717     0.04800
C931        C  0.17392497  0.71101628  0.31356472     0.27300
C932        C  0.16681294  0.71844302  0.33146602    -0.13200
C933        C  0.17568186  0.71274177  0.34923839     0.05400
C934        C  0.19161301  0.69936322  0.34921654    -0.09200
C935        C  0.19775717  0.69081824  0.33135452     0.06200
C936        C  0.18914852  0.69693941  0.31353675    -0.13500
Br937      Br  0.19636110  0.74953028  0.30096201    -0.05600
Br938      Br  0.12331634  0.70435231  0.25272823     0.00000
Br939      Br  0.16609441  0.72360929  0.37362271     0.00500
Br940      Br  0.19923324  0.68732786  0.28888340    -0.03900
Br941      Br  0.17812877  0.77028572  0.26087717     0.00600
Br942      Br  0.13827831  0.68697808  0.29623421    -0.03200
Br943      Br  0.14565143  0.73738593  0.33141400    -0.04100
Br944      Br  0.21906705  0.67204027  0.33085706    -0.00100
C945        C  0.12933738  0.78889494  0.49068789     0.01300
C946        C  0.14838355  0.78365730  0.49735708     0.04100
C947        C  0.16044985  0.77135809  0.48593577    -0.11900
C948        C  0.15373806  0.76424115  0.46773382     0.23400
C949        C  0.13509954  0.77003019  0.46066106    -0.12500
C950        C  0.12288422  0.78226018  0.47210769     0.04800
C951        C  0.16667306  0.75111585  0.45592742     0.27300
C952        C  0.17863086  0.75926993  0.44099658    -0.13200
C953        C  0.19206623  0.74725199  0.43083786     0.05400
C954        C  0.19348710  0.72686892  0.43537428    -0.09200
C955        C  0.18095707  0.71856083  0.44981407     0.06200
C956        C  0.16780268  0.73071507  0.46027694    -0.13500
Br957      Br  0.12633858  0.76109508  0.43525519    -0.05600
Br958      Br  0.15856830  0.79387106  0.52182252     0.00000
Br959      Br  0.20764079  0.75866478  0.40982821     0.00500
Br960      Br  0.15142539  0.71956190  0.48077264    -0.03900
Br961      Br  0.09692499  0.78889154  0.46262561     0.00600
Br962      Br  0.18643249  0.76431359  0.49507920    -0.03200
Br963      Br  0.17642334  0.78699950  0.43445248    -0.04100
Br964      Br  0.18208456  0.69063788  0.45555459    -0.00100
C965        C  0.08576986  0.84544827  0.50407645     0.01300
C966        C  0.06654945  0.84696397  0.49640043     0.04100
C967        C  0.05950785  0.86547318  0.48984068    -0.11900
C968        C  0.07180406  0.88241470  0.49074420     0.23400
C969        C  0.09063694  0.88088790  0.49936451    -0.12500
C970        C  0.09760522  0.86248419  0.50588831     0.04800
C971        C  0.06588609  0.90133014  0.48098620     0.27300
C972        C  0.06934900  0.90392518  0.46095532    -0.13200
C973        C  0.06658267  0.92257062  0.45185642     0.05400
C974        C  0.05824485  0.93934930  0.46240948    -0.09200
C975        C  0.05188877  0.93463098  0.48240418     0.06200
C976        C  0.05745064  0.91665382  0.49169067    -0.13500
Br977      Br  0.10715929  0.90390130  0.50217438    -0.05600
Br978      Br  0.05025174  0.82359145  0.49431899     0.00000
Br979      Br  0.07750132  0.92375409  0.42550541     0.00500
Br980      Br  0.05318283  0.91221562  0.51957527    -0.03900
Br981      Br  0.12373118  0.86042004  0.51692369     0.00600
Br982      Br  0.03322334  0.86767894  0.47930743    -0.03200
Br983      Br  0.07945435  0.88152867  0.44634974    -0.04100
Br984      Br  0.03275508  0.94865435  0.49811226    -0.00100
C985        C  0.02572091  0.85292980  0.29404308     0.01300
C986        C  0.02062974  0.83294111  0.29059319     0.04100
C987        C  0.03327152  0.82084404  0.27955442    -0.11900
C988        C  0.05102979  0.82867222  0.27196925     0.23400
C989        C  0.05640422  0.84841583  0.27593832    -0.12500
C990        C  0.04369575  0.86059506  0.28675327     0.04800
C991        C  0.06442056  0.81616877  0.26015674     0.27300
C992        C  0.08020467  0.80648541  0.26940961    -0.13200
C993        C  0.09415295  0.79627258  0.25812629     0.05400
C994        C  0.09210704  0.79526880  0.23753383    -0.09200
C995        C  0.07615075  0.80471450  0.22826453     0.06200
C996        C  0.06237357  0.81527124  0.23956985    -0.13500
Br997      Br  0.08135415  0.85865126  0.26657048    -0.05600
Br998      Br  0.99659514  0.82192160  0.30145873     0.00000
Br999      Br  0.11627806  0.78389544  0.27097982     0.00500
Br1000     Br  0.04126005  0.82939015  0.22688740    -0.03900
Br1001     Br  0.05042393  0.88809865  0.29043169     0.00600
Br1002     Br  0.02651462  0.79346892  0.27504336    -0.03200
Br1003     Br  0.08301605  0.80791218  0.29756076    -0.04100
Br1004     Br  0.07418170  0.80463582  0.20002536    -0.00100
C1005       C  0.00940393  0.89858079  0.34826195     0.01300
C1006       C  0.02187897  0.88957011  0.36241160     0.04100
C1007       C  0.02844751  0.90033443  0.37886671    -0.11900
C1008       C  0.02203340  0.91983189  0.38189122     0.23400
C1009       C  0.00883057  0.92851096  0.36853808    -0.12500
C1010       C  0.00287751  0.91822510  0.35157945     0.04800
C1011       C  0.02946953  0.93155195  0.39886245     0.27300
C1012       C  0.02007555  0.93028815  0.41707574    -0.13200
C1013       C  0.02702101  0.94144510  0.43315935     0.05400
C1014       C  0.04434281  0.95402524  0.43164075    -0.09200
C1015       C  0.05122150  0.95743218  0.41175710     0.06200
C1016       C  0.04479470  0.94523186  0.39614590    -0.13500
Br1017     Br  0.99899938  0.95475334  0.37368192    -0.05600
Br1018     Br  0.02939099  0.86211349  0.36029562     0.00000
Br1019     Br  0.01067966  0.93993911  0.45626970     0.00500
Br1020     Br  0.05781242  0.94613266  0.37076162    -0.03900
Br1021     Br  0.98684126  0.93214539  0.33264582     0.00600
Br1022     Br  0.04637101  0.88842975  0.39738113    -0.03200
Br1023     Br  0.99750735  0.91272902  0.41972313    -0.04100
Br1024     Br  0.06732109  0.97923592  0.40313689    -0.00100
C1025       C  0.28760973  0.91689066  0.31722018     0.01300
C1026       C  0.29796126  0.93355716  0.32420941     0.04100
C1027       C  0.28831756  0.94752595  0.33615979    -0.11900
C1028       C  0.26811455  0.94510553  0.34076886     0.23400
C1029       C  0.25780934  0.92840794  0.33375093    -0.12500
C1030       C  0.26753917  0.91427174  0.32219168     0.04800
C1031       C  0.25725809  0.96019462  0.35243839     0.27300
C1032       C  0.25307120  0.95677310  0.37247946    -0.13200
C1033       C  0.24059398  0.96969495  0.38284345     0.05400
C1034       C  0.23262108  0.98642969  0.37338134    -0.09200
C1035       C  0.23708025  0.99003626  0.35342621     0.06200
C1036       C  0.24920603  0.97688153  0.34296211    -0.13500
Br1037     Br  0.23020335  0.92501399  0.34004398    -0.05600
Br1038     Br  0.32507006  0.93763538  0.31648267     0.00000
Br1039     Br  0.23455034  0.96456003  0.41008434     0.00500
Br1040     Br  0.25421576  0.98123294  0.31537918    -0.03900
Br1041     Br  0.25346050  0.89087445  0.31386119     0.00600
Br1042     Br  0.30279387  0.96983568  0.34634205    -0.03200
Br1043     Br  0.26426137  0.93413741  0.38559070    -0.04100
Br1044     Br  0.22565538  0.01245050  0.34009911    -0.00100
C1045       C  0.07731932  0.97042657  0.44693720     0.01300
C1046       C  0.08070097  0.99139797  0.44282351     0.04100
C1047       C  0.09966618  0.99852096  0.43692905    -0.11900
C1048       C  0.11480326  0.98526000  0.43239467     0.23400
C1049       C  0.11208636  0.96532898  0.43702857    -0.12500
C1050       C  0.09534347  0.95926825  0.44768677     0.04800
C1051       C  0.13430624  0.99230409  0.42461228     0.27300
C1052       C  0.13807706  0.99247307  0.40424101    -0.13200
C1053       C  0.15683249  0.99803816  0.39699444     0.05400
C1054       C  0.17201158  0.00360763  0.41005291    -0.09200
C1055       C  0.16812340  0.00383654  0.43043078     0.06200
C1056       C  0.14947188  0.99787455  0.43768192    -0.13500
Br1057     Br  0.13258988  0.94656241  0.43105448    -0.05600
Br1058     Br  0.06063327  0.01163627  0.44242702     0.00000
Br1059     Br  0.16146810  0.99875867  0.36903227     0.00500
Br1060     Br  0.14483456  0.99653426  0.46561952    -0.03900
Br1061     Br  0.10271316  0.94234120  0.46928360     0.00600
Br1062     Br  0.10519089  0.02654983  0.43435068    -0.03200
Br1063     Br  0.11764833  0.98459375  0.38624345    -0.04100
Br1064     Br  0.18854437  0.01166709  0.44854744    -0.00100
C1065       C  0.27269037  0.14761312  0.39499312     0.01300
C1066       C  0.26258380  0.14256808  0.41256359     0.04100
C1067       C  0.25304258  0.12405206  0.41447466    -0.11900
C1068       C  0.25401162  0.11017253  0.39918784     0.23400
C1069       C  0.26447198  0.11485901  0.38189524    -0.12500
C1070       C  0.27356294  0.13355208  0.37963800     0.04800
C1071       C  0.24381926  0.09067359  0.40103459     0.27300
C1072       C  0.25422438  0.07399778  0.40771705    -0.13200
C1073       C  0.24509502  0.05522083  0.40783223     0.05400
C1074       C  0.22562457  0.05290113  0.40076930    -0.09200
C1075       C  0.21493043  0.06979394  0.39488275     0.06200
C1076       C  0.22400991  0.08862099  0.39512166    -0.13500
Br1077     Br  0.26595778  0.09555175  0.36113027    -0.05600
Br1078     Br  0.26246478  0.16041354  0.43461556     0.00000
Br1079     Br  0.25918648  0.03276644  0.41824556     0.00500
Br1080     Br  0.20964414  0.11165476  0.38660345    -0.03900
Br1081     Br  0.28598625  0.13993597  0.35482438     0.00600
Br1082     Br  0.23836029  0.11761518  0.43796753    -0.03200
Br1083     Br  0.28126263  0.07688157  0.41607389    -0.04100
Br1084     Br  0.18832194  0.06721988  0.38516748    -0.00100
C1085       C  0.43152267  0.24975842  0.65901372     0.01300
C1086       C  0.42983084  0.23812735  0.64182147     0.04100
C1087       C  0.42834224  0.24726812  0.62321560    -0.11900
C1088       C  0.42841478  0.26804657  0.62147398     0.23400
C1089       C  0.43099917  0.27967197  0.63839486    -0.12500
C1090       C  0.43301606  0.27058934  0.65701056     0.04800
C1091       C  0.42623299  0.27753252  0.60172664     0.27300
C1092       C  0.44272921  0.27951985  0.58922090    -0.13200
C1093       C  0.44050663  0.28703856  0.57000126     0.05400
C1094       C  0.42173915  0.29267596  0.56312522    -0.09200
C1095       C  0.40541114  0.29169452  0.57599716     0.06200
C1096       C  0.40760079  0.28393958  0.59514930    -0.13500
Br1097     Br  0.43137577  0.30812786  0.63595295    -0.05600
Br1098     Br  0.42861006  0.20959019  0.64331180     0.00000
Br1099     Br  0.46310173  0.28874867  0.55283091     0.00500
Br1100     Br  0.38499573  0.28161707  0.61226270    -0.03900
Br1101     Br  0.43929296  0.28675439  0.67945023     0.00600
Br1102     Br  0.42559583  0.23130669  0.59993886    -0.03200
Br1103     Br  0.46831902  0.27133997  0.59835634    -0.04100
Br1104     Br  0.38020997  0.30180846  0.56764790    -0.00100
C1105       C  0.34856484  0.29428072  0.83976987     0.01300
C1106       C  0.36346748  0.27984167  0.84123121     0.04100
C1107       C  0.37381650  0.27397754  0.82438782    -0.11900
C1108       C  0.37022479  0.28340571  0.80630994     0.23400
C1109       C  0.35742112  0.29966089  0.80537458    -0.12500
C1110       C  0.34631345  0.30495418  0.82199709     0.04800
C1111       C  0.37830380  0.27486488  0.78805506     0.27300
C1112       C  0.39679743  0.28100386  0.78081201    -0.13200
C1113       C  0.40477798  0.27195335  0.76405911     0.05400
C1114       C  0.39451071  0.25631100  0.75486251    -0.09200
C1115       C  0.37575996  0.25040558  0.76201570     0.06200
C1116       C  0.36762392  0.25985365  0.77843096    -0.13500
Br1117     Br  0.35435987  0.31378001  0.78089012    -0.05600
Br1118     Br  0.36998755  0.26823154  0.86633878     0.00000
Br1119     Br  0.42944276  0.28152349  0.75338117     0.00500
Br1120     Br  0.34206125  0.25175870  0.78830581    -0.03900
Br1121     Br  0.32693452  0.32557913  0.81952129     0.00600
Br1122     Br  0.39191897  0.25208804  0.82566985    -0.03200
Br1123     Br  0.41132081  0.30143691  0.79426854    -0.04100
Br1124     Br  0.36165027  0.22832925  0.75060359    -0.00100
C1125       C  0.22575686  0.17331376  0.80483715     0.01300
C1126       C  0.23918953  0.17066227  0.82048957     0.04100
C1127       C  0.24494981  0.18695119  0.83193695    -0.11900
C1128       C  0.23769621  0.20590034  0.82751086     0.23400
C1129       C  0.22314112  0.20826715  0.81301246    -0.12500
C1130       C  0.21717532  0.19199223  0.80166755     0.04800
C1131       C  0.24746638  0.22352648  0.83599977     0.27300
C1132       C  0.24087893  0.23156464  0.85381019    -0.13200
C1133       C  0.25086073  0.24783086  0.86203921     0.05400
C1134       C  0.26767157  0.25592407  0.85260057    -0.09200
C1135       C  0.27381913  0.24823367  0.83434589     0.06200
C1136       C  0.26383756  0.23193192  0.82620949    -0.13500
Br1137     Br  0.21232057  0.23409843  0.80801740    -0.05600
Br1138     Br  0.25186617  0.14552533  0.82486906     0.00000
Br1139     Br  0.24099173  0.25942123  0.88592851     0.00500
Br1140     Br  0.27320273  0.22026008  0.80210362    -0.03900
Br1141     Br  0.19775467  0.19544654  0.78129537     0.00600
Br1142     Br  0.26389918  0.18373662  0.85283374    -0.03200
Br1143     Br  0.21865302  0.21971978  0.86721208    -0.04100
Br1144     Br  0.29657967  0.25899221  0.82083429    -0.00100
C1145       C  0.27419372  0.15097278  0.73198576     0.01300
C1146       C  0.28127581  0.14412139  0.71382122     0.04100
C1147       C  0.29979668  0.15060892  0.70679298    -0.11900
C1148       C  0.31115025  0.16402088  0.71790665     0.23400
C1149       C  0.30366105  0.17149766  0.73565551    -0.12500
C1150       C  0.28534880  0.16484733  0.74280334     0.04800
C1151       C  0.33123742  0.17006876  0.71153693     0.27300
C1152       C  0.34777554  0.16035505  0.71942785    -0.13200
C1153       C  0.36678629  0.16829969  0.71652453     0.05400
C1154       C  0.36927264  0.18621108  0.70608655    -0.09200
C1155       C  0.35283623  0.19522969  0.69712223     0.06200
C1156       C  0.33385031  0.18711185  0.69983081    -0.13500
Br1157     Br  0.31876697  0.19066890  0.75037657    -0.05600
Br1158     Br  0.26531282  0.12633229  0.69842853     0.00000
Br1159     Br  0.38944265  0.15485746  0.72717467     0.00500
Br1160     Br  0.31112164  0.20030051  0.68909703    -0.03900
Br1161     Br  0.27643244  0.17369220  0.76824802     0.00600
Br1162     Br  0.30971871  0.14113729  0.68207980    -0.03200
Br1163     Br  0.34414585  0.13711361  0.73564425    -0.04100
Br1164     Br  0.35581701  0.21995917  0.68307974    -0.00100
C1165       C  0.52623453  0.12097701  0.78925128     0.01300
C1166       C  0.50801851  0.11467134  0.78137690     0.04100
C1167       C  0.49652303  0.12787856  0.77023005    -0.11900
C1168       C  0.50257468  0.14773586  0.76783734     0.23400
C1169       C  0.52081043  0.15402500  0.77555862    -0.12500
C1170       C  0.53275563  0.14063315  0.78597208     0.04800
C1171       C  0.48929209  0.16208867  0.75791199     0.27300
C1172       C  0.49090829  0.16560282  0.73755680    -0.13200
C1173       C  0.47713070  0.17777338  0.72794944     0.05400
C1174       C  0.46237315  0.18739582  0.73879126    -0.09200
C1175       C  0.46110310  0.18438028  0.75927740     0.06200
C1176       C  0.47435113  0.17150877  0.76875907    -0.13500
Br1177     Br  0.52936656  0.18105088  0.77186370    -0.05600
Br1178     Br  0.49889688  0.08787319  0.78539774     0.00000
Br1179     Br  0.47814395  0.18103985  0.69983802     0.00500
Br1180     Br  0.47179648  0.16623879  0.79654682    -0.03900
Br1181     Br  0.55771452  0.14961720  0.79645343     0.00600
Br1182     Br  0.47269266  0.11874493  0.75764759    -0.03200
Br1183     Br  0.51198401  0.15367127  0.72288914    -0.04100
Br1184     Br  0.44046602  0.19689576  0.77417947    -0.00100
C1185       C  0.49066646  0.04986168  0.93886040     0.01300
C1186       C  0.48845781  0.06921440  0.93003648     0.04100
C1187       C  0.49475493  0.07288452  0.91070394    -0.11900
C1188       C  0.50964761  0.06142112  0.90254449     0.23400
C1189       C  0.51697182  0.04544055  0.91337806    -0.12500
C1190       C  0.50722038  0.03886458  0.93074881     0.04800
C1191       C  0.51904741  0.06749030  0.88359405     0.27300
C1192       C  0.51364471  0.05813586  0.86594044    -0.13200
C1193       C  0.52251970  0.06396558  0.84804533     0.05400
C1194       C  0.53666231  0.07940822  0.84763761    -0.09200
C1195       C  0.54185316  0.08888738  0.86530076     0.06200
C1196       C  0.53327230  0.08281715  0.88322516    -0.13500
Br1197     Br  0.54054168  0.03260518  0.90377971    -0.05600
Br1198     Br  0.48683339  0.09380480  0.94449360     0.00000
Br1199     Br  0.51519228  0.05081031  0.82408520     0.00500
Br1200     Br  0.54057277  0.09587591  0.90730719    -0.03900
Br1201     Br  0.51757902  0.01408338  0.94083830     0.00600
Br1202     Br  0.48478194  0.09545343  0.89635248    -0.03200
Br1203     Br  0.49350193  0.03784781  0.86629699    -0.04100
Br1204     Br  0.55968596  0.11117665  0.86478592    -0.00100
C1205       C  0.30763935  0.02260081  0.86135428     0.01300
C1206       C  0.29372355  0.03621972  0.86842829     0.04100
C1207       C  0.28366023  0.04875704  0.85526699    -0.11900
C1208       C  0.28673700  0.04706369  0.83484568     0.23400
C1209       C  0.30042748  0.03316968  0.82776269    -0.12500
C1210       C  0.31125746  0.02141824  0.84101284     0.04800
C1211       C  0.27609481  0.06030192  0.82087516     0.27300
C1212       C  0.25601368  0.05695596  0.81646049    -0.13200
C1213       C  0.24584850  0.07001874  0.80387456     0.05400
C1214       C  0.25595962  0.08594159  0.79479444    -0.09200
C1215       C  0.27626279  0.08885515  0.79873657     0.06200
C1216       C  0.28605285  0.07651597  0.81222643    -0.13500
Br1217     Br  0.30394978  0.02990030  0.79984797    -0.05600
Br1218     Br  0.28829568  0.03747172  0.89617132     0.00000
Br1219     Br  0.21770449  0.06714424  0.80070659     0.00500
Br1220     Br  0.31286837  0.08249789  0.81978099    -0.03900
Br1221     Br  0.33139375  0.00399408  0.83133950     0.00600
Br1222     Br  0.26574923  0.06840102  0.86517228    -0.03200
Br1223     Br  0.24225284  0.03481993  0.82824719    -0.04100
Br1224     Br  0.29105880  0.10945478  0.78532588    -0.00100
C1225       C  0.45844807  0.02866228  0.94829235     0.01300
C1226       C  0.44114815  0.02490029  0.96024718     0.04100
C1227       C  0.42263027  0.01997935  0.95183683    -0.11900
C1228       C  0.42039048  0.01892141  0.93141883     0.23400
C1229       C  0.43728880  0.02039927  0.91958906    -0.12500
C1230       C  0.45619205  0.02301531  0.92802447     0.04800
C1231       C  0.40062502  0.01435932  0.92248483     0.27300
C1232       C  0.39674015  0.99538602  0.91480584    -0.13200
C1233       C  0.37875047  0.99130405  0.90521946     0.05400
C1234       C  0.36341769  0.00542497  0.90510337    -0.09200
C1235       C  0.36693135  0.02411320  0.91379656     0.06200
C1236       C  0.38564149  0.02876975  0.92175719    -0.13500
Br1237     Br  0.43438712  0.02017012  0.89133190    -0.05600
Br1238     Br  0.44192329  0.02439405  0.98842948     0.00000
Br1239     Br  0.37608310  0.96685013  0.89087171     0.00500
Br1240     Br  0.39062460  0.05492165  0.93188480    -0.03900
Br1241     Br  0.47696098  0.01238581  0.91224192     0.00600
Br1242     Br  0.39979890  0.01474885  0.96824660    -0.03200
Br1243     Br  0.41581093  0.97458933  0.91823390    -0.04100
Br1244     Br  0.34589179  0.04308341  0.91609120    -0.00100
C1245       C  0.37813917  0.20403262  0.99568895     0.01300
C1246       C  0.38558916  0.21059072  0.97741831     0.04100
C1247       C  0.37376465  0.22206991  0.96487363    -0.11900
C1248       C  0.35467082  0.22765199  0.97077411     0.23400
C1249       C  0.34726410  0.22130436  0.98910700    -0.12500
C1250       C  0.35890864  0.20940086  0.00149381     0.04800
C1251       C  0.34290068  0.24096725  0.95796765     0.27300
C1252       C  0.34627101  0.26155181  0.95846641    -0.13200
C1253       C  0.33701037  0.27405894  0.94473843     0.05400
C1254       C  0.32405453  0.26606555  0.93063146    -0.09200
C1255       C  0.31976953  0.24554684  0.93093569     0.06200
C1256       C  0.32928669  0.23304020  0.94449154    -0.13500
Br1257     Br  0.32131014  0.22932374  0.99732918    -0.05600
Br1258     Br  0.41260232  0.20537613  0.97023608     0.00000
Br1259     Br  0.34181110  0.30218546  0.94551866     0.00500
Br1260     Br  0.32435603  0.20488702  0.94412307    -0.03900
Br1261     Br  0.34837067  0.20027626  0.02630875     0.00600
Br1262     Br  0.38384611  0.23054360  0.93966314    -0.03200
Br1263     Br  0.36395516  0.27243114  0.97783138    -0.04100
Br1264     Br  0.30202505  0.23410817  0.91187426    -0.00100
C1265       C  0.42082545  0.14683247  0.00771530     0.01300
C1266       C  0.41164061  0.12815910  0.00941198     0.04100
C1267       C  0.42091781  0.11130989  0.00175024    -0.11900
C1268       C  0.43922253  0.11315405  0.99203605     0.23400
C1269       C  0.44861350  0.13181485  0.99075742    -0.12500
C1270       C  0.43948169  0.14858296  0.99876068     0.04800
C1271       C  0.44845591  0.09529096  0.98337199     0.27300
C1272       C  0.46190870  0.08431703  0.99431658    -0.13200
C1273       C  0.46867245  0.06583754  0.98754727     0.05400
C1274       C  0.46561520  0.05988639  0.96722681    -0.09200
C1275       C  0.45075589  0.07131895  0.95677924     0.06200
C1276       C  0.44212799  0.08829769  0.96517376    -0.13500
Br1277     Br  0.47399296  0.13445328  0.97822635    -0.05600
Br1278     Br  0.38648585  0.12566171  0.02240696     0.00000
Br1279     Br  0.47739597  0.04921560  0.00925619     0.00500
Br1280     Br  0.42222905  0.10334370  0.95122435    -0.03900
Br1281     Br  0.45250333  0.17405815  0.99766430     0.00600
Br1282     Br  0.40876040  0.08553854  0.00463233    -0.03200
Br1283     Br  0.47018966  0.09467588  0.01954407    -0.04100
Br1284     Br  0.44289228  0.06699570  0.92974332    -0.00100
C1285       C  0.41182880  0.19695412  0.05883426     0.01300
C1286       C  0.40406021  0.18724278  0.07549556     0.04100
C1287       C  0.40598218  0.19591836  0.09411813    -0.11900
C1288       C  0.41523643  0.21455183  0.09605191     0.23400
C1289       C  0.42402983  0.22369369  0.07955836    -0.12500
C1290       C  0.42230289  0.21490696  0.06094338     0.04800
C1291       C  0.41273647  0.22579391  0.11454256     0.27300
C1292       C  0.39484474  0.23573387  0.11778890    -0.13200
C1293       C  0.39140545  0.24528264  0.13572519     0.05400
C1294       C  0.40612804  0.24551714  0.15035121    -0.09200
C1295       C  0.42427483  0.23599090  0.14690182     0.06200
C1296       C  0.42754114  0.22607922  0.12902738    -0.13500
Br1297     Br  0.43754283  0.24871156  0.08239110    -0.05600
Br1298     Br  0.38898732  0.16311924  0.07252583     0.00000
Br1299     Br  0.36580812  0.25659926  0.14068672     0.00500
Br1300     Br  0.45220583  0.21289711  0.12428981    -0.03900
Br1301     Br  0.43375988  0.22771703  0.03820902     0.00600
Br1302     Br  0.39486835  0.18293026  0.11690401    -0.03200
Br1303     Br  0.37491488  0.23607169  0.09753349    -0.04100
Br1304     Br  0.44489034  0.23700479  0.16636958    -0.00100
C1305       C  0.67889247  0.11410672  0.74581789     0.01300
C1306       C  0.66165818  0.12577855  0.74617890     0.04100
C1307       C  0.64462072  0.11911654  0.75626267    -0.11900
C1308       C  0.64453430  0.10080461  0.76627365     0.23400
C1309       C  0.66146502  0.08885139  0.76557566    -0.12500
C1310       C  0.67854738  0.09541639  0.75539109     0.04800
C1311       C  0.62685283  0.09488026  0.77823483     0.27300
C1312       C  0.62456911  0.10230724  0.79742814    -0.13200
C1313       C  0.60636857  0.10022200  0.80739201     0.05400
C1314       C  0.59044992  0.09020463  0.79842505    -0.09200
C1315       C  0.59337758  0.08120496  0.78001426     0.06200
C1316       C  0.61137134  0.08375500  0.76982758    -0.13500
Br1317     Br  0.66111192  0.06349645  0.77872217    -0.05600
Br1318     Br  0.66157080  0.15160595  0.73402054     0.00000
Br1319     Br  0.60280379  0.11277229  0.83243423     0.00500
Br1320     Br  0.61428284  0.07322311  0.74377345    -0.03900
Br1321     Br  0.70112482  0.07826382  0.75396768     0.00600
Br1322     Br  0.62123704  0.13525002  0.75675189    -0.03200
Br1323     Br  0.64610771  0.11655580  0.80943127    -0.04100
Br1324     Br  0.57222073  0.06595392  0.76849804    -0.00100
C1325       C  0.77016108  0.26631131  0.62828942     0.01300
C1326       C  0.76095442  0.25282900  0.61540133     0.04100
C1327       C  0.75146661  0.23571259  0.62293050    -0.11900
C1328       C  0.75103090  0.23213552  0.64336338     0.23400
C1329       C  0.75914535  0.24628803  0.65622260    -0.12500
C1330       C  0.76879670  0.26320890  0.64872801     0.04800
C1331       C  0.74426886  0.21273238  0.65159237     0.27300
C1332       C  0.72534776  0.21060157  0.65995860    -0.13200
C1333       C  0.72068896  0.19382371  0.67159357     0.05400
C1334       C  0.73503655  0.17912773  0.67507860    -0.09200
C1335       C  0.75361449  0.18079935  0.66560800     0.06200
C1336       C  0.75801988  0.19736521  0.65370723    -0.13500
Br1337     Br  0.75768208  0.24201133  0.68423369    -0.05600
Br1338     Br  0.76265305  0.25703177  0.58740957     0.00000
Br1339     Br  0.69457201  0.19099237  0.68252796     0.00500
Br1340     Br  0.78344251  0.19965828  0.64100953    -0.03900
Br1341     Br  0.78025099  0.28217338  0.66655784     0.00600
Br1342     Br  0.73979107  0.21674613  0.60532515    -0.03200
Br1343     Br  0.70615892  0.23112587  0.65590795    -0.04100
Br1344     Br  0.77417383  0.16171492  0.67044905    -0.00100
C1345       C  0.93250964  0.26646693  0.83203550     0.01300
C1346       C  0.92934972  0.28663033  0.83616902     0.04100
C1347       C  0.93325492  0.29400767  0.85505275    -0.11900
C1348       C  0.93999087  0.28121719  0.86996159     0.23400
C1349       C  0.94394169  0.26126787  0.86561908    -0.12500
C1350       C  0.94030996  0.25392150  0.84665215     0.04800
C1351       C  0.93969173  0.28788281  0.89069818     0.27300
C1352       C  0.95690176  0.29479253  0.90006139    -0.13200
C1353       C  0.95622832  0.30053361  0.91996092     0.05400
C1354       C  0.93812157  0.30012241  0.93030844    -0.09200
C1355       C  0.92080866  0.29367634  0.92056353     0.06200
C1356       C  0.92172466  0.28722868  0.90102394    -0.13500
Br1357     Br  0.95315676  0.24377171  0.88604518    -0.05600
Br1358     Br  0.91764279  0.30373382  0.81667620     0.00000
Br1359     Br  0.98034723  0.30761883  0.93323806     0.00500
Br1360     Br  0.89824627  0.27731883  0.88820260    -0.03900
Br1361     Br  0.94597373  0.22664865  0.84071736     0.00600
Br1362     Br  0.92800559  0.32134166  0.86103227    -0.03200
Br1363     Br  0.98128076  0.29633319  0.88549610    -0.04100
Br1364     Br  0.89536115  0.29438299  0.93336882    -0.00100
C1365       C  0.86516136  0.20727103  0.78011366     0.01300
C1366       C  0.84821505  0.21087233  0.79164670     0.04100
C1367       C  0.83027744  0.20109433  0.78741599    -0.11900
C1368       C  0.82923954  0.18751809  0.77181676     0.23400
C1369       C  0.84651409  0.18259208  0.76150186    -0.12500
C1370       C  0.86439815  0.19245962  0.76550215     0.04800
C1371       C  0.80989261  0.17954718  0.76501867     0.27300
C1372       C  0.80193067  0.16206769  0.77323627    -0.13200
C1373       C  0.78463690  0.15357848  0.76531715     0.05400
C1374       C  0.77532000  0.16238902  0.74897557    -0.09200
C1375       C  0.78306514  0.18019842  0.74107984     0.06200
C1376       C  0.80026141  0.18873294  0.74910085    -0.13500
Br1377     Br  0.84532201  0.16282477  0.74117032    -0.05600
Br1378     Br  0.84958970  0.22887047  0.81353427     0.00000
Br1379     Br  0.77350788  0.13001656  0.77707446     0.00500
Br1380     Br  0.81139941  0.21251676  0.73761328    -0.03900
Br1381     Br  0.88718477  0.18660181  0.74951626     0.00600
Br1382     Br  0.80695177  0.20661404  0.80259547    -0.03200
Br1383     Br  0.81532410  0.14934787  0.79476271    -0.04100
Br1384     Br  0.77121361  0.19218102  0.71822874    -0.00100
C1385       C  0.88746669  0.28355022  0.73928091     0.01300
C1386       C  0.86925173  0.27796760  0.73094941     0.04100
C1387       C  0.86114720  0.28918047  0.71554325    -0.11900
C1388       C  0.87134791  0.30586387  0.70810161     0.23400
C1389       C  0.88880710  0.31231067  0.71737450    -0.12500
C1390       C  0.89688998  0.30115431  0.73295466     0.04800
C1391       C  0.86467205  0.31482396  0.68923701     0.27300
C1392       C  0.87228303  0.30759175  0.67140568    -0.13200
C1393       C  0.86268939  0.31183541  0.65355430     0.05400
C1394       C  0.84478163  0.32239215  0.65365572    -0.09200
C1395       C  0.83874533  0.33178784  0.67111155     0.06200
C1396       C  0.84884328  0.32819080  0.68885037    -0.13500
Br1397     Br  0.90180168  0.33609513  0.70830319    -0.05600
Br1398     Br  0.85532798  0.25485086  0.74063263     0.00000
Br1399     Br  0.87355301  0.30195086  0.62933586     0.00500
Br1400     Br  0.84054470  0.34067071  0.71281698    -0.03900
Br1401     Br  0.92165365  0.30910702  0.74448193     0.00600
Br1402     Br  0.83624608  0.28132618  0.70417170    -0.03200
Br1403     Br  0.89487140  0.29037420  0.67169700    -0.04100
Br1404     Br  0.81677914  0.34972568  0.67060268    -0.00100
C1405       C  0.97889638  0.03405813  0.52706690     0.01300
C1406       C  0.99579830  0.04358999  0.51769507     0.04100
C1407       C  0.00821371  0.03306243  0.50462503    -0.11900
C1408       C  0.00617656  0.01251284  0.50231435     0.23400
C1409       C  0.98992961  0.00299129  0.51113981    -0.12500
C1410       C  0.97519872  0.01394938  0.52090507     0.04800
C1411       C  0.01956879  0.00128123  0.48862768     0.27300
C1412       C  0.01287537  0.99596726  0.46989394    -0.13200
C1413       C  0.02493522  0.98504234  0.45689351     0.05400
C1414       C  0.04335035  0.97640022  0.46350121    -0.09200
C1415       C  0.05097872  0.98471889  0.48149740     0.06200
C1416       C  0.03913491  0.99683920  0.49373867    -0.13500
Br1417     Br  0.98718924  0.97460328  0.50882711    -0.05600
Br1418     Br  0.00333040  0.07110840  0.52198208     0.00000
Br1419     Br  0.01691743  0.98740945  0.42955113     0.00500
Br1420     Br  0.04941347  0.00670452  0.51829780    -0.03900
Br1421     Br  0.94925131  0.00177882  0.51929271     0.00600
Br1422     Br  0.02802135  0.04683507  0.48920147    -0.03200
Br1423     Br  0.98716728  0.00520136  0.46160328    -0.04100
Br1424     Br  0.07695972  0.97877354  0.49141073    -0.00100
C1425       C  0.95924687  0.21962447  0.74648598     0.01300
C1426       C  0.95836188  0.22237492  0.72588578     0.04100
C1427       C  0.97146978  0.21226266  0.71353163    -0.11900
C1428       C  0.98548846  0.19934084  0.72158322     0.23400
C1429       C  0.98706002  0.19724743  0.74210655    -0.12500
C1430       C  0.97380935  0.20714160  0.75456122     0.04800
C1431       C  0.99697497  0.18625255  0.70847487     0.27300
C1432       C  0.98891029  0.16784905  0.70297768    -0.13200
C1433       C  0.00007892  0.15459354  0.69171958     0.05400
C1434       C  0.01919285  0.16003167  0.68524559    -0.09200
C1435       C  0.02669985  0.17906620  0.68973085     0.06200
C1436       C  0.01574341  0.19198973  0.70160141    -0.13500
Br1437     Br  0.00722841  0.18043932  0.75298436    -0.05600
Br1438     Br  0.93797374  0.23835757  0.71411492     0.00000
Br1439     Br  0.98942299  0.12858791  0.68649932     0.00500
Br1440     Br  0.02636307  0.21755233  0.70856154    -0.03900
Br1441     Br  0.97573218  0.20341958  0.78260801     0.00600
Br1442     Br  0.96970931  0.21527338  0.68539555    -0.03200
Br1443     Br  0.96243307  0.16087519  0.71107561    -0.04100
Br1444     Br  0.05159603  0.18794534  0.67890976    -0.00100
C1445       C  0.97848708  0.05216584  0.56111277     0.01300
C1446       C  0.96985158  0.06209108  0.57740267     0.04100
C1447       C  0.98011763  0.07702190  0.58746701    -0.11900
C1448       C  0.00065363  0.07824909  0.58614740     0.23400
C1449       C  0.01048609  0.06499214  0.57377341    -0.12500
C1450       C  0.99972079  0.05095661  0.56253874     0.04800
C1451       C  0.01160549  0.08918005  0.60179102     0.27300
C1452       C  0.01583047  0.10955917  0.59992879    -0.13200
C1453       C  0.02426099  0.12001299  0.61578046     0.05400
C1454       C  0.02862245  0.11015815  0.63355927    -0.09200
C1455       C  0.02397950  0.08988515  0.63556818     0.06200
C1456       C  0.01561693  0.07942823  0.61973720    -0.13500
Br1457     Br  0.03893481  0.06621636  0.57237417    -0.05600
Br1458     Br  0.95113068  0.04865144  0.59415455     0.00000
Br1459     Br  0.02926925  0.14806171  0.61346082     0.00500
Br1460     Br  0.00824731  0.05193648  0.62305092    -0.03900
Br1461     Br  0.01497769  0.02811876  0.55480285     0.00600
Br1462     Br  0.96616663  0.09398763  0.60544063    -0.03200
Br1463     Br  0.00908470  0.12329655  0.57604215    -0.04100
Br1464     Br  0.02711731  0.07690205  0.66064690    -0.00100
C1465       C  0.17244482  0.12319603  0.73506324     0.01300
C1466       C  0.16951347  0.11030837  0.71902208     0.04100
C1467       C  0.15182584  0.11092383  0.70815473    -0.11900
C1468       C  0.13675042  0.12412887  0.71338350     0.23400
C1469       C  0.13938737  0.13668310  0.72962615    -0.12500
C1470       C  0.15713270  0.13627742  0.74042005     0.04800
C1471       C  0.11795213  0.12450566  0.70203067     0.27300
C1472       C  0.11584002  0.13731510  0.68575284    -0.13200
C1473       C  0.09789728  0.13782410  0.67529253     0.05400
C1474       C  0.08200986  0.12552313  0.68104341    -0.09200
C1475       C  0.08426756  0.11247289  0.69704352     0.06200
C1476       C  0.10208834  0.11210893  0.70763849    -0.13500
Br1477     Br  0.11865903  0.15472297  0.73678055    -0.05600
Br1478     Br  0.18922017  0.09098114  0.71243978     0.00000
Br1479     Br  0.09480926  0.15572325  0.65338871     0.00500
Br1480     Br  0.10445435  0.09545341  0.73055395    -0.03900
Br1481     Br  0.16058994  0.15458046  0.76183691     0.00600
Br1482     Br  0.14815081  0.09379242  0.68587528    -0.03200
Br1483     Br  0.13724241  0.15481748  0.67846129    -0.04100
Br1484     Br  0.06259319  0.09550945  0.70473117    -0.00100
C1485       C  0.80009201  0.01019964  0.63147084     0.01300
C1486       C  0.79201044  0.00548470  0.65013980     0.04100
C1487       C  0.78297238  0.02029283  0.66149806    -0.11900
C1488       C  0.78197356  0.03986324  0.65440145     0.23400
C1489       C  0.78954203  0.04449600  0.63566319    -0.12500
C1490       C  0.79829024  0.02969638  0.62411895     0.04800
C1491       C  0.77252289  0.05552378  0.66643307     0.27300
C1492       C  0.75211688  0.05883881  0.66489774    -0.13200
C1493       C  0.74310892  0.07380010  0.67603596     0.05400
C1494       C  0.75455228  0.08584553  0.68865958    -0.09200
C1495       C  0.77510451  0.08240099  0.69018746     0.06200
C1496       C  0.78397847  0.06727999  0.67911982    -0.13500
Br1497     Br  0.78776739  0.07125275  0.62586163    -0.05600
Br1498     Br  0.79363488  0.97897285  0.66070678     0.00000
Br1499     Br  0.71488575  0.07700886  0.67438072     0.00500
Br1500     Br  0.81204215  0.06292727  0.68077582    -0.03900
Br1501     Br  0.80634555  0.03593987  0.59760495     0.00600
Br1502     Br  0.77195006  0.01394253  0.68693807    -0.03200
Br1503     Br  0.73662724  0.04296057  0.64711204    -0.04100
Br1504     Br  0.79168084  0.09899746  0.70638155    -0.00100
C1505       C  0.85958267  0.98968144  0.59482244     0.01300
C1506       C  0.87247123  0.00205619  0.60575971     0.04100
C1507       C  0.89025493  0.00915460  0.59742315    -0.11900
C1508       C  0.89600400  0.00338969  0.57842789     0.23400
C1509       C  0.88403315  0.98987261  0.56805512    -0.12500
C1510       C  0.86592768  0.98307191  0.57608320     0.04800
C1511       C  0.91347937  0.01303683  0.56857719     0.27300
C1512       C  0.91047932  0.02870935  0.55548780    -0.13200
C1513       C  0.92636969  0.03704969  0.54472323     0.05400
C1514       C  0.94667947  0.03296826  0.54990205    -0.09200
C1515       C  0.94913799  0.01606754  0.56274058     0.06200
C1516       C  0.93270491  0.00606653  0.57135059    -0.13500
Br1517     Br  0.89213625  0.98151963  0.54222103    -0.05600
Br1518     Br  0.86658600  0.00885617  0.63269104     0.00000
Br1519     Br  0.91783627  0.05053536  0.52115821     0.00500
Br1520     Br  0.93621943  0.98255217  0.58721064    -0.03900
Br1521     Br  0.84972419  0.96559326  0.56046301     0.00600
Br1522     Br  0.90630568  0.02771919  0.61174015    -0.03200
Br1523     Br  0.88388229  0.03859952  0.55223423    -0.04100
Br1524     Br  0.97451117  0.00523310  0.56888934    -0.00100
C1525       C  0.89484278  0.22006331  0.50205149     0.01300
C1526       C  0.90298060  0.22893879  0.51892336     0.04100
C1527       C  0.89117761  0.24078447  0.53111347    -0.11900
C1528       C  0.87133497  0.24435753  0.52620131     0.23400
C1529       C  0.86327129  0.23587463  0.50913927    -0.12500
C1530       C  0.87487326  0.22350051  0.49727665     0.04800
C1531       C  0.85887905  0.25676657  0.53918674     0.27300
C1532       C  0.84686218  0.24773874  0.55359917    -0.13200
C1533       C  0.83544868  0.25941960  0.56628539     0.05400
C1534       C  0.83616304  0.28026045  0.56477972    -0.09200
C1535       C  0.84808112  0.28928660  0.55023087     0.06200
C1536       C  0.85934652  0.27755136  0.53741770    -0.13500
Br1537     Br  0.83632508  0.24145921  0.50200034    -0.05600
Br1538     Br  0.93061765  0.22583489  0.52475593     0.00000
Br1539     Br  0.81985816  0.24676223  0.58657758     0.00500
Br1540     Br  0.87565830  0.28983791  0.51751534    -0.03900
Br1541     Br  0.86297617  0.21062221  0.47504195     0.00600
Br1542     Br  0.90213882  0.25226231  0.55458207    -0.03200
Br1543     Br  0.84664485  0.21930804  0.55634850    -0.04100
Br1544     Br  0.84853853  0.31769565  0.54743025    -0.00100
C1545       C  0.93560983  0.16108574  0.49084930     0.01300
C1546       C  0.95434308  0.15959442  0.49964001     0.04100
C1547       C  0.96083412  0.14123011  0.50716645    -0.11900
C1548       C  0.94853612  0.12431494  0.50591860     0.23400
C1549       C  0.93001549  0.12584841  0.49651687    -0.12500
C1550       C  0.92375036  0.14408579  0.48880579     0.04800
C1551       C  0.95431482  0.10497263  0.51494070     0.27300
C1552       C  0.95862561  0.08878533  0.50290349    -0.13200
C1553       C  0.95932092  0.06935306  0.51073096     0.05400
C1554       C  0.95798212  0.06586200  0.53172720    -0.09200
C1555       C  0.95033285  0.08229326  0.54264505     0.06200
C1556       C  0.95087077  0.10167632  0.53496327    -0.13500
Br1557     Br  0.91283995  0.10303723  0.49450382    -0.05600
Br1558     Br  0.97105589  0.18272972  0.50107388     0.00000
Br1559     Br  0.95767378  0.04850126  0.49119425     0.00500
Br1560     Br  0.94514773  0.12385237  0.55187049    -0.03900
Br1561     Br  0.89891930  0.14585291  0.47509476     0.00600
Br1562     Br  0.98640115  0.13925454  0.51932828    -0.03200
Br1563     Br  0.96344973  0.09358798  0.47526573    -0.04100
Br1564     Br  0.93075054  0.07923173  0.56307111    -0.00100
C1565       C  0.91887457  0.25257123  0.34274283     0.01300
C1566       C  0.92422689  0.23236129  0.34392933     0.04100
C1567       C  0.92820621  0.22361680  0.36232547    -0.11900
C1568       C  0.92578911  0.23458579  0.37966776     0.23400
C1569       C  0.92110905  0.25480772  0.37853036    -0.12500
C1570       C  0.91834387  0.26393614  0.36014715     0.04800
C1571       C  0.92613319  0.22453027  0.39911069     0.27300
C1572       C  0.90947403  0.21355534  0.40531384    -0.13200
C1573       C  0.90877802  0.20550487  0.42435026     0.05400
C1574       C  0.92445337  0.20882090  0.43746571    -0.09200
C1575       C  0.94143134  0.21914114  0.43111092     0.06200
C1576       C  0.94233558  0.22689957  0.41188220    -0.13500
Br1577     Br  0.91735200  0.26975795  0.40233724    -0.05600
Br1578     Br  0.92443275  0.21582157  0.32089219     0.00000
Br1579     Br  0.88635028  0.18979379  0.43246429     0.00500
Br1580     Br  0.96537976  0.24138634  0.40321441    -0.03900
Br1581     Br  0.91443736  0.29221477  0.35914800     0.00600
Br1582     Br  0.93613814  0.19627854  0.36404164    -0.03200
Br1583     Br  0.88713829  0.21034746  0.38803612    -0.04100
Br1584     Br  0.96302816  0.22328369  0.44904342    -0.00100
C1585       C  0.76104173  0.64313326  0.10280941     0.01300
C1586       C  0.78077847  0.64277419  0.09608793     0.04100
C1587       C  0.79065282  0.62465638  0.09410526    -0.11900
C1588       C  0.78116233  0.60685241  0.09941827     0.23400
C1589       C  0.76133681  0.60705114  0.10562883    -0.12500
C1590       C  0.75120906  0.62511647  0.10717724     0.04800
C1591       C  0.79237263  0.58804501  0.09948354     0.27300
C1592       C  0.79201117  0.57555431  0.08300343    -0.13200
C1593       C  0.80184835  0.55725753  0.08359315     0.05400
C1594       C  0.81226619  0.55157430  0.10056984    -0.09200
C1595       C  0.81351008  0.56456010  0.11662047     0.06200
C1596       C  0.80340481  0.58267780  0.11617388    -0.13500
Br1597     Br  0.74831853  0.58249391  0.11254244    -0.05600
Br1598     Br  0.79444291  0.66701415  0.08927393     0.00000
Br1599     Br  0.80059881  0.53981950  0.06135994     0.00500
Br1600     Br  0.80430415  0.60004128  0.13856105    -0.03900
Br1601     Br  0.72436053  0.62502035  0.11669419     0.00600
Br1602     Br  0.81728521  0.62406049  0.08413010    -0.03200
Br1603     Br  0.77781575  0.58353075  0.05979685    -0.04100
Br1604     Br  0.82932950  0.55763813  0.13908725    -0.00100
C1605       C  0.69576618  0.69793332  0.16246792     0.01300
C1606       C  0.67785813  0.70841927  0.16114398     0.04100
C1607       C  0.66748875  0.71338512  0.17829766    -0.11900
C1608       C  0.67472138  0.70748593  0.19675895     0.23400
C1609       C  0.69150643  0.69542964  0.19798868    -0.12500
C1610       C  0.70216032  0.69077268  0.18090779     0.04800
C1611       C  0.66696481  0.71680871  0.21478192     0.27300
C1612       C  0.67622924  0.73411437  0.22167060    -0.13200
C1613       C  0.66929346  0.74335009  0.23868527     0.05400
C1614       C  0.65284708  0.73545569  0.24885995    -0.09200
C1615       C  0.64348443  0.71813141  0.24191548     0.06200
C1616       C  0.65073727  0.70866159  0.22499664    -0.13500
Br1617     Br  0.70077424  0.68691069  0.22342684    -0.05600
Br1618     Br  0.66755001  0.71623452  0.13585851     0.00000
Br1619     Br  0.68179400  0.76761551  0.24713714     0.00500
Br1620     Br  0.63880657  0.68443559  0.21585498    -0.03900
Br1621     Br  0.72663164  0.67657546  0.18338123     0.00600
Br1622     Br  0.64423559  0.72961961  0.17672596    -0.03200
Br1623     Br  0.69843183  0.74532154  0.20752596    -0.04100
Br1624     Br  0.62118841  0.70703412  0.25581983    -0.00100
C1625       C  0.87140732  0.87669538  0.24267318     0.01300
C1626       C  0.88558672  0.86145465  0.24351501     0.04100
C1627       C  0.90332932  0.86440143  0.25374604    -0.11900
C1628       C  0.90703650  0.88248320  0.26323150     0.23400
C1629       C  0.89324500  0.89788868  0.26202866    -0.12500
C1630       C  0.87544022  0.89505121  0.25177317     0.04800
C1631       C  0.92528733  0.88484949  0.27492681     0.27300
C1632       C  0.92553285  0.87868396  0.29471625    -0.13200
C1633       C  0.94344307  0.87816715  0.30510635     0.05400
C1634       C  0.96110549  0.88397130  0.29571538    -0.09200
C1635       C  0.96062050  0.89127309  0.27626062     0.06200
C1636       C  0.94275730  0.89155090  0.26583518    -0.13500
Br1637     Br  0.89874853  0.92272509  0.27479359    -0.05600
Br1638     Br  0.88134143  0.83663724  0.23012200     0.00000
Br1639     Br  0.94392871  0.86799490  0.33160095     0.00500
Br1640     Br  0.94228557  0.90014886  0.23878206    -0.03900
Br1641     Br  0.85625847  0.91603529  0.25138977     0.00600
Br1642     Br  0.92272458  0.84362090  0.25490741    -0.03200
Br1643     Br  0.90138978  0.86992082  0.30712662    -0.04100
Br1644     Br  0.98446362  0.90092994  0.26383356    -0.00100
C1645       C  0.82430038  0.81799396  0.17751994     0.01300
C1646       C  0.82726453  0.79901236  0.18562523     0.04100
C1647       C  0.82117913  0.78214997  0.17525102    -0.11900
C1648       C  0.81179925  0.78430950  0.15695355     0.23400
C1649       C  0.81086035  0.80307534  0.14791608    -0.12500
C1650       C  0.81738460  0.81994345  0.15810401     0.04800
C1651       C  0.79937167  0.76792229  0.14945834     0.27300
C1652       C  0.80619994  0.75517768  0.13470980    -0.13200
C1653       C  0.79388927  0.73984448  0.12778524     0.05400
C1654       C  0.77472741  0.73730006  0.13564415    -0.09200
C1655       C  0.76802654  0.75008697  0.15051771     0.06200
C1656       C  0.78029641  0.76535453  0.15731366    -0.13500
Br1657     Br  0.79830245  0.80586235  0.12267355    -0.05600
Br1658     Br  0.83827076  0.79623800  0.21161569     0.00000
Br1659     Br  0.80366757  0.72189515  0.10820301     0.00500
Br1660     Br  0.77075452  0.78323347  0.17714785    -0.03900
Br1661     Br  0.81425400  0.84580681  0.14644055     0.00600
Br1662     Br  0.82345985  0.75624554  0.18702022    -0.03200
Br1663     Br  0.83232725  0.75894511  0.12405015    -0.04100
Br1664     Br  0.74157255  0.74767321  0.16097288    -0.00100
C1665       C  0.77238916  0.84493985  0.24926760     0.01300
C1666       C  0.75924478  0.83149331  0.24011600     0.04100
C1667       C  0.74316730  0.82353499  0.25059000    -0.11900
C1668       C  0.74023231  0.82852533  0.27040180     0.23400
C1669       C  0.75383632  0.84102942  0.27993710    -0.12500
C1670       C  0.76992789  0.84921583  0.26943531     0.04800
C1671       C  0.72229130  0.82099191  0.28060687     0.27300
C1672       C  0.70472495  0.83193364  0.27960128    -0.13200
C1673       C  0.68670172  0.82318487  0.28529024     0.05400
C1674       C  0.68606086  0.80319167  0.29132964    -0.09200
C1675       C  0.70388677  0.79266599  0.29361335     0.06200
C1676       C  0.72198286  0.80173467  0.28858972    -0.13500
Br1677     Br  0.75017527  0.84703826  0.30732296    -0.05600
Br1678     Br  0.76367425  0.82265601  0.21354741     0.00000
Br1679     Br  0.66291924  0.83869930  0.28492568     0.00500
Br1680     Br  0.74634742  0.78744919  0.29145862    -0.03900
Br1681     Br  0.78804837  0.86673312  0.28271686     0.00600
Br1682     Br  0.72486657  0.80580532  0.23770690    -0.03200
Br1683     Br  0.70528252  0.85852025  0.26918435    -0.04100
Br1684     Br  0.70366751  0.76515745  0.30147869    -0.00100
C1685       C  0.49069807  0.03003105  0.97142191     0.01300
C1686       C  0.50792070  0.03990597  0.97948027     0.04100
C1687       C  0.52027641  0.03064861  0.99350407    -0.11900
C1688       C  0.51719388  0.01089794  0.99913140     0.23400
C1689       C  0.50155320  0.00027799  0.99058149    -0.12500
C1690       C  0.48876715  0.00920377  0.97657895     0.04800
C1691       C  0.53089826  0.00104154  0.01361188     0.27300
C1692       C  0.55041475  0.99663215  0.00840836    -0.13200
C1693       C  0.56312953  0.98669555  0.02174919     0.05400
C1694       C  0.55587050  0.97865356  0.04015273    -0.09200
C1695       C  0.53722550  0.98713553  0.04640710     0.06200
C1696       C  0.52473010  0.99704803  0.03289134    -0.13500
Br1697     Br  0.49845767  0.97261804  0.99774585    -0.05600
Br1698     Br  0.51524705  0.06681053  0.97307855     0.00000
Br1699     Br  0.58979440  0.98376491  0.01258910     0.00500
Br1700     Br  0.49889396  0.00612216  0.04087133    -0.03900
Br1701     Br  0.47254943  0.99015662  0.96260111     0.00600
Br1702     Br  0.54118414  0.04551044  0.00624989    -0.03200
Br1703     Br  0.55896799  0.00222514  0.98173253    -0.04100
Br1704     Br  0.52932115  0.99077163  0.07364174    -0.00100
C1705       C  0.63760255  0.78577126  0.01495996     0.01300
C1706       C  0.63179132  0.77783795  0.03328563     0.04100
C1707       C  0.64455034  0.76520883  0.04371823    -0.11900
C1708       C  0.66310823  0.76026974  0.03583491     0.23400
C1709       C  0.66879965  0.76791279  0.01739126    -0.12500
C1710       C  0.65632754  0.78101880  0.00721772     0.04800
C1711       C  0.67706724  0.74804562  0.04753581     0.27300
C1712       C  0.68980169  0.75732240  0.06101606    -0.13200
C1713       C  0.70208599  0.74591167  0.07318735     0.05400
C1714       C  0.70216736  0.72506208  0.07157498    -0.09200
C1715       C  0.68973914  0.71579265  0.05772013     0.06200
C1716       C  0.67718294  0.72727241  0.04577769    -0.13500
Br1717     Br  0.69349650  0.75992370  0.00590037    -0.05600
Br1718     Br  0.60604612  0.78361092  0.04378869     0.00000
Br1719     Br  0.71736791  0.75897756  0.09332533     0.00500
Br1720     Br  0.65992198  0.71465956  0.02710352    -0.03900
Br1721     Br  0.66549488  0.79342252  0.98325534     0.00600
Br1722     Br  0.63648585  0.75416736  0.06865356    -0.03200
Br1723     Br  0.69004619  0.78579659  0.06304717    -0.04100
Br1724     Br  0.69015472  0.68743481  0.05477989    -0.00100
C1725       C  0.57138970  0.94158338  0.04300578     0.01300
C1726       C  0.58066655  0.92586284  0.05442497     0.04100
C1727       C  0.58444864  0.90698356  0.04642768    -0.11900
C1728       C  0.58016505  0.90285112  0.02686034     0.23400
C1729       C  0.57071579  0.91705048  0.01537131    -0.12500
C1730       C  0.56533126  0.93570290  0.02325843     0.04800
C1731       C  0.58550236  0.88319204  0.01846244     0.27300
C1732       C  0.60351080  0.88079831  0.00836071    -0.13200
C1733       C  0.60911662  0.86203428  0.00157804     0.05400
C1734       C  0.59703213  0.84540751  0.00520561    -0.09200
C1735       C  0.57890432  0.84773991  0.01506206     0.06200
C1736       C  0.57296007  0.86666945  0.02131381    -0.13500
Br1737     Br  0.56490896  0.90995628  0.98832877    -0.05600
Br1738     Br  0.59128499  0.92908300  0.08064979     0.00000
Br1739     Br  0.63350192  0.85901699  0.98730395     0.00500
Br1740     Br  0.54761419  0.87017203  0.03368613    -0.03900
Br1741     Br  0.54764968  0.94951832  0.00575318     0.00600
Br1742     Br  0.59688193  0.88636506  0.06193396    -0.03200
Br1743     Br  0.62067272  0.90311926  0.00377515    -0.04100
Br1744     Br  0.56254151  0.82493734  0.02045950    -0.00100
C1745       C  0.79406416  0.91357851  0.18559812     0.01300
C1746       C  0.80512525  0.92962976  0.17809102     0.04100
C1747       C  0.79568556  0.94466514  0.16726748    -0.11900
C1748       C  0.77517810  0.94363592  0.16391747     0.23400
C1749       C  0.76407654  0.92785696  0.17199296    -0.12500
C1750       C  0.77353986  0.91275433  0.18260644     0.04800
C1751       C  0.76525069  0.95899448  0.15178123     0.27300
C1752       C  0.75716095  0.97583720  0.16074432    -0.13200
C1753       C  0.74698768  0.98993516  0.14936376     0.05400
C1754       C  0.74508449  0.98737490  0.12890770    -0.09200
C1755       C  0.75355690  0.97073748  0.11989451     0.06200
C1756       C  0.76353349  0.95653689  0.13130518    -0.13500
Br1757     Br  0.73584672  0.92709484  0.16872300    -0.05600
Br1758     Br  0.83312100  0.93101368  0.18283383     0.00000
Br1759     Br  0.73500242  0.01234420  0.16191898     0.00500
Br1760     Br  0.77488582  0.93366110  0.11894445    -0.03900
Br1761     Br  0.75852177  0.89048561  0.19254135     0.00600
Br1762     Br  0.81067276  0.96685265  0.15722398    -0.03200
Br1763     Br  0.76006075  0.97940460  0.18867274    -0.04100
Br1764     Br  0.75194078  0.96774159  0.09178926    -0.00100
C1765       C  0.59012606  0.97306293  0.05655867     0.01300
C1766       C  0.60848199  0.96275742  0.05301338     0.04100
C1767       C  0.62609951  0.96848539  0.06240204    -0.11900
C1768       C  0.62795030  0.98721386  0.07072134     0.23400
C1769       C  0.61180455  0.00004057  0.06990498    -0.12500
C1770       C  0.59317825  0.99345727  0.06258322     0.04800
C1771       C  0.64769154  0.99412006  0.07796342     0.27300
C1772       C  0.65268110  0.99262394  0.09800977    -0.13200
C1773       C  0.67155302  0.99845999  0.10455861     0.05400
C1774       C  0.68599244  0.00509575  0.09101566    -0.09200
C1775       C  0.68110779  0.00632966  0.07088989     0.06200
C1776       C  0.66193751  0.00123593  0.06447645    -0.13500
Br1777     Br  0.61508338  0.02615262  0.08104834    -0.05600
Br1778     Br  0.61371897  0.94588728  0.03071972     0.00000
Br1779     Br  0.67729077  0.99798845  0.13234775     0.00500
Br1780     Br  0.65515901  0.00355680  0.03704913    -0.03900
Br1781     Br  0.57300244  0.01341955  0.06268471     0.00600
Br1782     Br  0.64851175  0.95086179  0.06290018    -0.03200
Br1783     Br  0.63391030  0.98205582  0.11656529    -0.04100
Br1784     Br  0.70100513  0.01352949  0.05183060    -0.00100
C1785       C  0.79079841  0.14668014  0.09489746     0.01300
C1786       C  0.78004680  0.14116575  0.07811086     0.04100
C1787       C  0.77005633  0.12278891  0.07762514    -0.11900
C1788       C  0.77070364  0.10993417  0.09401010     0.23400
C1789       C  0.78142956  0.11553542  0.11081371    -0.12500
C1790       C  0.79145405  0.13381705  0.11123370     0.04800
C1791       C  0.76009987  0.09055064  0.09387734     0.27300
C1792       C  0.74010071  0.08942565  0.09944600    -0.13200
C1793       C  0.73067731  0.07085298  0.10164472     0.05400
C1794       C  0.74118169  0.05322470  0.09798783    -0.09200
C1795       C  0.76097250  0.05452213  0.09145315     0.06200
C1796       C  0.77044121  0.07307232  0.08970688    -0.13500
Br1797     Br  0.78207342  0.09820118  0.13343037    -0.05600
Br1798     Br  0.77945372  0.15871550  0.05571631     0.00000
Br1799     Br  0.70383270  0.06980775  0.11104708     0.00500
Br1800     Br  0.79789644  0.07462116  0.08228423    -0.03900
Br1801     Br  0.80536869  0.14157585  0.13460505     0.00600
Br1802     Br  0.75541978  0.11522701  0.05461702    -0.03200
Br1803     Br  0.72596114  0.11347645  0.10489083    -0.04100
Br1804     Br  0.77512052  0.03095928  0.08418519    -0.00100
C1805       C  0.52507006  0.87043327  0.21802480     0.01300
C1806       C  0.51880023  0.85107158  0.22318133     0.04100
C1807       C  0.53147432  0.83843094  0.23365852    -0.11900
C1808       C  0.55048631  0.84495003  0.23895601     0.23400
C1809       C  0.55677979  0.86420822  0.23384516    -0.12500
C1810       C  0.54410477  0.87695259  0.22348228     0.04800
C1811       C  0.56396141  0.83145708  0.24972193     0.27300
C1812       C  0.56429585  0.83134253  0.27041468    -0.13200
C1813       C  0.57717765  0.81862926  0.28059266     0.05400
C1814       C  0.58989192  0.80609403  0.27008580    -0.09200
C1815       C  0.58965603  0.80638462  0.24933898     0.06200
C1816       C  0.57658177  0.81887459  0.23921551    -0.13500
Br1817     Br  0.58283371  0.87306182  0.24118590    -0.05600
Br1818     Br  0.49320613  0.84130006  0.21519878     0.00000
Br1819     Br  0.57697628  0.81797882  0.30888348     0.00500
Br1820     Br  0.57610161  0.81904917  0.21087968    -0.03900
Br1821     Br  0.55255266  0.90367783  0.21770224     0.00600
Br1822     Br  0.52295198  0.81202154  0.24070979    -0.03200
Br1823     Br  0.54713732  0.84879876  0.28468627    -0.04100
Br1824     Br  0.60829146  0.79079959  0.23463461    -0.00100
C1825       C  0.55654600  0.95706749  0.07296985     0.01300
C1826       C  0.53892955  0.94481386  0.07137848     0.04100
C1827       C  0.53006486  0.93545387  0.08786430    -0.11900
C1828       C  0.53657818  0.93943897  0.10687796     0.23400
C1829       C  0.55239112  0.95250986  0.10948718    -0.12500
C1830       C  0.56241687  0.96118074  0.09315670     0.04800
C1831       C  0.52712453  0.92957889  0.12438702     0.27300
C1832       C  0.51375518  0.93998181  0.13633398    -0.13200
C1833       C  0.50657118  0.93151038  0.15401892     0.05400
C1834       C  0.51193494  0.91200500  0.15957982    -0.09200
C1835       C  0.52489037  0.90138362  0.14706577     0.06200
C1836       C  0.53273323  0.91032736  0.12992240    -0.13500
Br1837     Br  0.56099504  0.95711145  0.13637204    -0.05600
Br1838     Br  0.52454051  0.94116151  0.04728807     0.00000
Br1839     Br  0.49094410  0.94773188  0.17127255     0.00500
Br1840     Br  0.55192470  0.89651292  0.11418965    -0.03900
Br1841     Br  0.58444046  0.97693059  0.10141106     0.00600
Br1842     Br  0.50896189  0.91626254  0.08460282    -0.03200
Br1843     Br  0.50598837  0.96635766  0.12873892    -0.04100
Br1844     Br  0.53184297  0.87423717  0.15261431    -0.00100
C1845       C  0.45984921  0.89996996  0.21053883     0.01300
C1846       C  0.45648184  0.90907795  0.22885298     0.04100
C1847       C  0.43777635  0.90780246  0.23789882    -0.11900
C1848       C  0.42232637  0.89717318  0.22888644     0.23400
C1849       C  0.42540107  0.88889284  0.21013890    -0.12500
C1850       C  0.44409099  0.89028891  0.20100258     0.04800
C1851       C  0.40333420  0.89376067  0.23968651     0.27300
C1852       C  0.40163577  0.87797326  0.25321748    -0.13200
C1853       C  0.38386698  0.87474337  0.26367309     0.05400
C1854       C  0.36725767  0.88686920  0.26010252    -0.09200
C1855       C  0.36935701  0.90322316  0.24719303     0.06200
C1856       C  0.38733218  0.90670356  0.23717794    -0.13500
Br1857     Br  0.40419499  0.87494261  0.19732749    -0.05600
Br1858     Br  0.47763473  0.92310997  0.24174061     0.00000
Br1859     Br  0.38263412  0.85350432  0.28272205     0.00500
Br1860     Br  0.39039677  0.92958524  0.22041671    -0.03900
Br1861     Br  0.44858526  0.87753857  0.17612998     0.00600
Br1862     Br  0.43330186  0.92014414  0.26297431    -0.03200
Br1863     Br  0.42387357  0.86073920  0.25734744    -0.04100
Br1864     Br  0.34816247  0.92190796  0.24437347    -0.00100
C1865       C  0.11628134  0.75400117  0.65017841     0.01300
C1866       C  0.13221260  0.75747821  0.63712772     0.04100
C1867       C  0.12893843  0.76705522  0.61904511    -0.11900
C1868       C  0.10999306  0.77397275  0.61431081     0.23400
C1869       C  0.09439135  0.77160674  0.62775500    -0.12500
C1870       C  0.09737995  0.76127607  0.64545835     0.04800
C1871       C  0.10611810  0.78219550  0.59450776     0.27300
C1872       C  0.10784410  0.80264357  0.59084442    -0.13200
C1873       C  0.10521077  0.81009083  0.57166510     0.05400
C1874       C  0.10105703  0.79694996  0.55605594    -0.09200
C1875       C  0.09847508  0.77655417  0.56007771     0.06200
C1876       C  0.10101921  0.76924803  0.57922225    -0.13500
Br1877     Br  0.06884901  0.78236758  0.62162978    -0.05600
Br1878     Br  0.15880247  0.75032186  0.64427781     0.00000
Br1879     Br  0.10862717  0.83808394  0.56695525     0.00500
Br1880     Br  0.09807969  0.74129389  0.58455867    -0.03900
Br1881     Br  0.07513147  0.75605945  0.66246729     0.00600
Br1882     Br  0.15028125  0.77052409  0.60048629    -0.03200
Br1883     Br  0.11457019  0.82020951  0.61210239    -0.04100
Br1884     Br  0.09122613  0.75839054  0.53944484    -0.00100
C1885       C  0.26024464  0.63548228  0.73024511     0.01300
C1886       C  0.26293659  0.64800160  0.71379536     0.04100
C1887       C  0.24665717  0.65750556  0.70529665    -0.11900
C1888       C  0.22776373  0.65465903  0.71339382     0.23400
C1889       C  0.22472912  0.64029789  0.72814907    -0.12500
C1890       C  0.24094274  0.63052756  0.73649820     0.04800
C1891       C  0.21158750  0.66839379  0.70848576     0.27300
C1892       C  0.20954924  0.68587995  0.71944509    -0.13200
C1893       C  0.19293739  0.69789485  0.71680423     0.05400
C1894       C  0.17804564  0.69222464  0.70342884    -0.09200
C1895       C  0.18016531  0.67469368  0.69244490     0.06200
C1896       C  0.19719420  0.66310061  0.69461371    -0.13500
Br1897     Br  0.19837737  0.63522336  0.73783422    -0.05600
Br1898     Br  0.28898086  0.65235415  0.70308898     0.00000
Br1899     Br  0.18987947  0.72103739  0.73309133     0.00500
Br1900     Br  0.20085705  0.63973266  0.67895274    -0.03900
Br1901     Br  0.23647927  0.61188265  0.75763294     0.00600
Br1902     Br  0.25019624  0.67505053  0.68316172    -0.03200
Br1903     Br  0.22910428  0.69277740  0.73890939    -0.04100
Br1904     Br  0.15971615  0.66623677  0.67467506    -0.00100
C1905       C  0.30998921  0.95693004  0.89228560     0.01300
C1906       C  0.30787457  0.94534006  0.87523695     0.04100
C1907       C  0.29917564  0.92641010  0.87627477    -0.11900
C1908       C  0.29306455  0.91843385  0.89447975     0.23400
C1909       C  0.29574595  0.92971039  0.91171717    -0.12500
C1910       C  0.30410881  0.94894368  0.91060695     0.04800
C1911       C  0.28389658  0.89820947  0.89500291     0.27300
C1912       C  0.26319848  0.89594692  0.89576074    -0.13200
C1913       C  0.25440439  0.87715327  0.89294385     0.05400
C1914       C  0.26620003  0.86053369  0.88876245    -0.09200
C1915       C  0.28694359  0.86271406  0.88866127     0.06200
C1916       C  0.29572380  0.88136672  0.89209394    -0.13500
Br1917     Br  0.28786702  0.91886074  0.93678754    -0.05600
Br1918     Br  0.31797674  0.95482028  0.85041318     0.00000
Br1919     Br  0.22619862  0.87414859  0.89539304     0.00500
Br1920     Br  0.32407605  0.88412413  0.89180329    -0.03900
Br1921     Br  0.30693898  0.96458332  0.93406993     0.00600
Br1922     Br  0.29538709  0.91139319  0.85251108    -0.03200
Br1923     Br  0.24685397  0.91883690  0.89975776    -0.04100
Br1924     Br  0.30345952  0.84056589  0.88201583    -0.00100
C1925       C  0.20921840  0.79951761  0.82333938     0.01300
C1926       C  0.19323545  0.81173589  0.81822903     0.04100
C1927       C  0.18112025  0.80688124  0.80212271    -0.11900
C1928       C  0.18495585  0.78979349  0.79103049     0.23400
C1929       C  0.20124626  0.77784848  0.79578614    -0.12500
C1930       C  0.21316600  0.78251684  0.81204579     0.04800
C1931       C  0.17140437  0.78348317  0.77505742     0.27300
C1932       C  0.15443752  0.77221304  0.77965912    -0.13200
C1933       C  0.14377705  0.76277224  0.76466997     0.05400
C1934       C  0.15008065  0.76447442  0.74499467    -0.09200
C1935       C  0.16598001  0.77725834  0.74018783     0.06200
C1936       C  0.17657414  0.78677939  0.75525466    -0.13500
Br1937     Br  0.20686216  0.75469655  0.78023037    -0.05600
Br1938     Br  0.18808613  0.83524499  0.83322087     0.00000
Br1939     Br  0.12041103  0.74750716  0.77113028     0.00500
Br1940     Br  0.19881796  0.80360675  0.74898417    -0.03900
Br1941     Br  0.23367084  0.76445010  0.81983960     0.00600
Br1942     Br  0.15909703  0.82341658  0.79532036    -0.03200
Br1943     Br  0.14623064  0.76901168  0.80660727    -0.04100
Br1944     Br  0.17450312  0.78054078  0.71328071    -0.00100
C1945       C  0.27876569  0.75983566  0.85638485     0.01300
C1946       C  0.27352360  0.73996649  0.86089885     0.04100
C1947       C  0.28197344  0.72428151  0.85041407    -0.11900
C1948       C  0.29601881  0.72811949  0.83564698     0.23400
C1949       C  0.30270154  0.74760761  0.83233957    -0.12500
C1950       C  0.29422512  0.76347726  0.84270898     0.04800
C1951       C  0.30162850  0.71186543  0.82215391     0.27300
C1952       C  0.31635577  0.69823087  0.82739108    -0.13200
C1953       C  0.31890973  0.68084316  0.81632194     0.05400
C1954       C  0.30693618  0.67721561  0.79975491    -0.09200
C1955       C  0.29284033  0.69144807  0.79402140     0.06200
C1956       C  0.29033682  0.70873866  0.80511256    -0.13500
Br1957     Br  0.32256071  0.75247533  0.81253322    -0.05600
Br1958     Br  0.25469391  0.73369610  0.88141721     0.00000
Br1959     Br  0.33887319  0.66210970  0.82385743     0.00500
Br1960     Br  0.27075115  0.72791535  0.79747942    -0.03900
Br1961     Br  0.30321015  0.79002397  0.83678160     0.00600
Br1962     Br  0.27328912  0.69739681  0.85525761    -0.03200
Br1963     Br  0.33274193  0.70339507  0.84991097    -0.04100
Br1964     Br  0.27536993  0.68661638  0.77215643    -0.00100
C1965       C  0.99115556  0.47675314  0.02936822     0.01300
C1966       C  0.00939274  0.48592977  0.03600956     0.04100
C1967       C  0.02154121  0.49696905  0.02292180    -0.11900
C1968       C  0.01558996  0.50077286  0.00359319     0.23400
C1969       C  0.99677032  0.49453553  0.99759510    -0.12500
C1970       C  0.98425321  0.48370147  0.01050631     0.04800
C1971       C  0.02862198  0.51266252  0.98998170     0.27300
C1972       C  0.02394413  0.53225821  0.98541608    -0.13200
C1973       C  0.03569144  0.54354644  0.97219298     0.05400
C1974       C  0.05402517  0.53615697  0.96422045    -0.09200
C1975       C  0.05734087  0.51507475  0.96799409     0.06200
C1976       C  0.04519105  0.50413609  0.98124812    -0.13500
Br1977     Br  0.98893043  0.49938653  0.97064268    -0.05600
Br1978     Br  0.01683704  0.48916492  0.06334237     0.00000
Br1979     Br  0.02577387  0.56968598  0.96708999     0.00500
Br1980     Br  0.05032110  0.47643656  0.98696565    -0.03900
Br1981     Br  0.95824170  0.47807065  0.00053059     0.00600
Br1982     Br  0.04644003  0.50817515  0.03159312    -0.03200
Br1983     Br  0.00148534  0.54393180  0.99861948    -0.04100
Br1984     Br  0.07407015  0.49764966  0.95252108    -0.00100
C1985       C  0.01583828  0.63571402  0.78699169     0.01300
C1986       C  0.01660551  0.63261986  0.76645575     0.04100
C1987       C  0.02872287  0.64469729  0.75446770    -0.11900
C1988       C  0.04052778  0.65961179  0.76289660     0.23400
C1989       C  0.03970238  0.66282536  0.78330131    -0.12500
C1990       C  0.02743864  0.65095288  0.79532202     0.04800
C1991       C  0.05440469  0.67147260  0.75048763     0.27300
C1992       C  0.07404474  0.66521427  0.74821015    -0.13200
C1993       C  0.08759376  0.67687697  0.73748109     0.05400
C1994       C  0.08151643  0.69470065  0.72853580    -0.09200
C1995       C  0.06183201  0.70095172  0.73073600     0.06200
C1996       C  0.04830181  0.68933672  0.74168006    -0.13500
Br1997     Br  0.05505891  0.68400488  0.79462396    -0.05600
Br1998     Br  0.00187409  0.61121449  0.75465167     0.00000
Br1999     Br  0.11497185  0.66922530  0.73651178     0.00500
Br2000     Br  0.02143174  0.69788241  0.74494972    -0.03900
Br2001     Br  0.02589534  0.65641535  0.82306645     0.00600
Br2002     Br  0.02895729  0.64116899  0.72637099    -0.03200
Br2003     Br  0.08246503  0.64078052  0.76022129    -0.04100
Br2004     Br  0.05337505  0.72527946  0.71863919    -0.00100
C2005       C  0.00279687  0.59405849  0.84566572     0.01300
C2006       C  0.99510210  0.59850675  0.86442638     0.04100
C2007       C  0.00357777  0.59010997  0.88152041    -0.11900
C2008       C  0.02003673  0.57743835  0.88008909     0.23400
C2009       C  0.02707183  0.57233303  0.86130117    -0.12500
C2010       C  0.01845667  0.58046385  0.84423574     0.04800
C2011       C  0.03072570  0.57055490  0.89823807     0.27300
C2012       C  0.04367815  0.58336700  0.90782633    -0.13200
C2013       C  0.05181675  0.57820064  0.92618019     0.05400
C2014       C  0.05308611  0.55765977  0.93255859    -0.09200
C2015       C  0.03874320  0.54491481  0.92272681     0.06200
C2016       C  0.02746866  0.55172246  0.90635617    -0.13500
Br2017     Br  0.04883881  0.55438291  0.85891341    -0.05600
Br2018     Br  0.97373508  0.61705760  0.86687807     0.00000
Br2019     Br  0.05318482  0.60129369  0.94292347     0.00500
Br2020     Br  0.00798445  0.53494703  0.89381249    -0.03900
Br2021     Br  0.02782921  0.57244042  0.81874289     0.00600
Br2022     Br  0.99277857  0.59610326  0.90700876    -0.03200
Br2023     Br  0.04954320  0.60890261  0.89609195    -0.04100
Br2024     Br  0.03424837  0.51733522  0.92888324    -0.00100
C2025       C  0.20871575  0.78260220  0.92056068     0.01300
C2026       C  0.19015741  0.77435879  0.91559152     0.04100
C2027       C  0.17895831  0.76415413  0.92984059    -0.11900
C2028       C  0.18684940  0.76072055  0.94862523     0.23400
C2029       C  0.20532317  0.76884765  0.95366166    -0.12500
C2030       C  0.21594747  0.78031724  0.93987363     0.04800
C2031       C  0.17647212  0.74710889  0.96240645     0.27300
C2032       C  0.16363226  0.75452983  0.97677853    -0.13200
C2033       C  0.15377650  0.74146130  0.98972064     0.05400
C2034       C  0.15676018  0.72076808  0.98835217    -0.09200
C2035       C  0.16930814  0.71340819  0.97344170     0.06200
C2036       C  0.17919828  0.72658093  0.96067620    -0.13500
Br2037     Br  0.21636858  0.76341036  0.97919801    -0.05600
Br2038     Br  0.18085497  0.77481418  0.88880279     0.00000
Br2039     Br  0.13511963  0.75218186  0.00822503     0.00500
Br2040     Br  0.19668132  0.71661816  0.94063829    -0.03900
Br2041     Br  0.24008018  0.79328666  0.94772624     0.00600
Br2042     Br  0.15298641  0.75418704  0.92355665    -0.03200
Br2043     Br  0.15929236  0.78267467  0.97829229    -0.04100
Br2044     Br  0.17362019  0.68536117  0.97034305    -0.00100
C2045       C  0.07761488  0.56896565  0.96071484     0.01300
C2046       C  0.09230038  0.58067121  0.94998877     0.04100
C2047       C  0.10167628  0.59739762  0.95837289    -0.11900
C2048       C  0.09509955  0.60510973  0.97616766     0.23400
C2049       C  0.08077762  0.59467590  0.98689393    -0.12500
C2050       C  0.07372274  0.57591108  0.98059359     0.04800
C2051       C  0.10385119  0.62386016  0.98414486     0.27300
C2052       C  0.11846932  0.62298797  0.99886100    -0.13200
C2053       C  0.12639711  0.64052342  0.00684804     0.05400
C2054       C  0.11960778  0.65910623  0.00037208    -0.09200
C2055       C  0.10501689  0.66006226  0.98569052     0.06200
C2056       C  0.09738414  0.64254430  0.97740822    -0.13500
Br2057     Br  0.07097998  0.60670957  0.01077205    -0.05600
Br2058     Br  0.09860253  0.57720344  0.92243924     0.00000
Br2059     Br  0.14732706  0.63909446  0.02596294     0.00500
Br2060     Br  0.07827398  0.64441078  0.95665242    -0.03900
Br2061     Br  0.06202793  0.56097359  0.00214937     0.00600
Br2062     Br  0.12337882  0.61072709  0.94511328    -0.03200
Br2063     Br  0.12793350  0.59767438  0.00780378    -0.04100
Br2064     Br  0.09482992  0.68545557  0.97753028    -0.00100
C2065       C  0.13412957  0.70434318  0.05514247     0.01300
C2066       C  0.11799589  0.71614578  0.06054508     0.04100
C2067       C  0.11651954  0.72349690  0.07978768    -0.11900
C2068       C  0.13124460  0.71914135  0.09369752     0.23400
C2069       C  0.14707942  0.70678448  0.08844559    -0.12500
C2070       C  0.14837326  0.69919002  0.06925083     0.04800
C2071       C  0.13023430  0.72765413  0.11379310     0.27300
C2072       C  0.13967249  0.74578935  0.11783331    -0.13200
C2073       C  0.14008091  0.75316226  0.13713899     0.05400
C2074       C  0.13038971  0.74277479  0.15251515    -0.09200
C2075       C  0.12043532  0.72484332  0.14826428     0.06200
C2076       C  0.12031177  0.71739137  0.12894434    -0.13500
Br2077     Br  0.16714725  0.70060277  0.10751198    -0.05600
Br2078     Br  0.09787319  0.72210207  0.04146887     0.00000
Br2079     Br  0.15546229  0.77667569  0.14254237     0.00500
Br2080     Br  0.10620828  0.69329218  0.12291363    -0.03900
Br2081     Br  0.16937747  0.68145702  0.06230564     0.00600
Br2082     Br  0.09446868  0.73972176  0.08710307    -0.03200
Br2083     Br  0.15188121  0.76060862  0.09671370    -0.04100
Br2084     Br  0.10647441  0.71060082  0.16863927    -0.00100
C2085       C  0.23452014  0.50912514  0.86434605     0.01300
C2086       C  0.22434886  0.52158014  0.85110226     0.04100
C2087       C  0.23486017  0.53515510  0.83924864    -0.11900
C2088       C  0.25555655  0.53639619  0.84047656     0.23400
C2089       C  0.26580044  0.52378364  0.85333492    -0.12500
C2090       C  0.25536471  0.51029161  0.86536511     0.04800
C2091       C  0.26648154  0.55139975  0.82862384     0.27300
C2092       C  0.27337825  0.54671179  0.80969804    -0.13200
C2093       C  0.28296989  0.56124939  0.79818693     0.05400
C2094       C  0.28553744  0.58057267  0.80553692    -0.09200
C2095       C  0.27912980  0.58507645  0.82468629     0.06200
C2096       C  0.26967128  0.57050589  0.83622031    -0.13500
Br2097     Br  0.29422408  0.52522493  0.85442820    -0.05600
Br2098     Br  0.19603994  0.51970158  0.84846156     0.00000
Br2099     Br  0.29153700  0.55496006  0.77193699     0.00500
Br2100     Br  0.26084921  0.57669244  0.86240407    -0.03900
Br2101     Br  0.26983607  0.49445890  0.88404706     0.00600
Br2102     Br  0.22097797  0.55207616  0.82111258    -0.03200
Br2103     Br  0.26917186  0.52046731  0.79946323    -0.04100
Br2104     Br  0.28383436  0.61109774  0.83531939    -0.00100
C2105       C  0.17997424  0.49625511  0.91106442     0.01300
C2106       C  0.17925219  0.51616233  0.91773328     0.04100
C2107       C  0.16149631  0.52411220  0.92509261    -0.11900
C2108       C  0.14454768  0.51210355  0.92706229     0.23400
C2109       C  0.14580386  0.49182526  0.92257559    -0.12500
C2110       C  0.16305293  0.48404639  0.91395814     0.04800
C2111       C  0.12507118  0.52095169  0.93269302     0.27300
C2112       C  0.12046782  0.52459113  0.95229442    -0.13200
C2113       C  0.10215609  0.53308631  0.95758512     0.05400
C2114       C  0.08707132  0.53799109  0.94318396    -0.09200
C2115       C  0.09203523  0.53244273  0.92317749     0.06200
C2116       C  0.11101412  0.52505646  0.91825162    -0.13500
Br2117     Br  0.12359442  0.47473060  0.92828405    -0.05600
Br2118     Br  0.20260827  0.53275900  0.91777888     0.00000
Br2119     Br  0.09825889  0.53494074  0.98549254     0.00500
Br2120     Br  0.11878833  0.52102420  0.89109612    -0.03900
Br2121     Br  0.16220326  0.45706021  0.90476068     0.00600
Br2122     Br  0.16016877  0.55167227  0.93228642    -0.03200
Br2123     Br  0.13971601  0.51713828  0.97201584    -0.04100
Br2124     Br  0.07490600  0.53413578  0.90083387    -0.00100
C2125       C  0.22622065  0.44234931  0.89212812     0.01300
C2126       C  0.23340462  0.43497418  0.91015494     0.04100
C2127       C  0.24221801  0.41613815  0.91109371    -0.11900
C2128       C  0.24403854  0.40460490  0.89400696     0.23400
C2129       C  0.23624567  0.41163176  0.87614407    -0.12500
C2130       C  0.22740833  0.43042785  0.87517115     0.04800
C2131       C  0.25506634  0.38558420  0.89438285     0.27300
C2132       C  0.27532358  0.38545718  0.88972325    -0.13200
C2133       C  0.28548639  0.36740162  0.88807450     0.05400
C2134       C  0.27549976  0.34924882  0.89146695    -0.09200
C2135       C  0.25528338  0.34948712  0.89670471     0.06200
C2136       C  0.24512498  0.36757425  0.89801349    -0.13500
Br2137     Br  0.23817266  0.39549780  0.85290567    -0.05600
Br2138     Br  0.23264291  0.45130929  0.93327627     0.00000
Br2139     Br  0.31262369  0.36777236  0.87941646     0.00500
Br2140     Br  0.21737394  0.36777353  0.90425364    -0.03900
Br2141     Br  0.21684600  0.43969370  0.85051778     0.00600
Br2142     Br  0.25240082  0.40631765  0.93564736    -0.03200
Br2143     Br  0.28892049  0.41019747  0.88488783    -0.04100
Br2144     Br  0.24135164  0.32512047  0.90254022    -0.00100
C2145       C  0.94880513  0.61091302  0.79901328     0.01300
C2146       C  0.93999981  0.59226898  0.79542422     0.04100
C2147       C  0.92102968  0.59106118  0.78701541    -0.11900
C2148       C  0.91095886  0.60840836  0.78163968     0.23400
C2149       C  0.91947444  0.62702523  0.78559728    -0.12500
C2150       C  0.93827694  0.62830587  0.79429974     0.04800
C2151       C  0.89175712  0.60720431  0.77110199     0.27300
C2152       C  0.89137475  0.60717110  0.75042339    -0.13200
C2153       C  0.87322536  0.60743591  0.74034496     0.05400
C2154       C  0.85527192  0.60836270  0.75092019    -0.09200
C2155       C  0.85575904  0.60799491  0.77170911     0.06200
C2156       C  0.87392595  0.60702613  0.78168950    -0.13500
Br2157     Br  0.90536797  0.65078368  0.77867756    -0.05600
Br2158     Br  0.95452453  0.56831036  0.80023287     0.00000
Br2159     Br  0.87318246  0.60592677  0.71204442     0.00500
Br2160     Br  0.87457184  0.60592316  0.80998808    -0.03900
Br2161     Br  0.94946180  0.65404737  0.79977420     0.00600
Br2162     Br  0.90884446  0.56565590  0.78237651    -0.03200
Br2163     Br  0.91590783  0.60721652  0.73598775    -0.04100
Br2164     Br  0.83184207  0.61068504  0.78686285    -0.00100
C2165       C  0.60943465  0.74330847  0.86257070     0.01300
C2166       C  0.62213105  0.73990009  0.87873012     0.04100
C2167       C  0.62003714  0.75087367  0.89615028    -0.11900
C2168       C  0.60510381  0.76513036  0.89780003     0.23400
C2169       C  0.59186862  0.76800203  0.88218037    -0.12500
C2170       C  0.59390701  0.75712234  0.86465702     0.04800
C2171       C  0.60297497  0.77650572  0.91634730     0.27300
C2172       C  0.59090458  0.76905336  0.93158337    -0.13200
C2173       C  0.59057181  0.77852799  0.94994045     0.05400
C2174       C  0.60253313  0.79528617  0.95323288    -0.09200
C2175       C  0.61358214  0.80351929  0.93764466     0.06200
C2176       C  0.61383103  0.79413729  0.91922192    -0.13500
Br2177     Br  0.57105778  0.78714121  0.88493931    -0.05600
Br2178     Br  0.64174333  0.71934653  0.87776931     0.00000
Br2179     Br  0.57384078  0.76858520  0.97071336     0.00500
Br2180     Br  0.62982343  0.80483972  0.89823710    -0.03900
Br2181     Br  0.57559788  0.76199702  0.84353951     0.00600
Br2182     Br  0.63759492  0.74641256  0.91801918    -0.03200
Br2183     Br  0.57568179  0.74523507  0.92752880    -0.04100
Br2184     Br  0.62918465  0.82706902  0.94190416    -0.00100
C2185       C  0.67416207  0.68899036  0.80155003     0.01300
C2186       C  0.68762461  0.69696548  0.78759270     0.04100
C2187       C  0.70384031  0.68576461  0.78123853    -0.11900
C2188       C  0.70718275  0.66677156  0.78906415     0.23400
C2189       C  0.69441037  0.65913694  0.80364086    -0.12500
C2190       C  0.67794600  0.67017870  0.80986049     0.04800
C2191       C  0.72375161  0.65478148  0.78115498     0.27300
C2192       C  0.72028212  0.64164142  0.76553745    -0.13200
C2193       C  0.73621474  0.63264313  0.75587656     0.05400
C2194       C  0.75582534  0.63702431  0.76143395    -0.09200
C2195       C  0.75925097  0.64922663  0.77787619     0.06200
C2196       C  0.74323847  0.65816687  0.78761210    -0.13500
Br2197     Br  0.69934570  0.63336180  0.81476369    -0.05600
Br2198     Br  0.68369409  0.72280280  0.77599891     0.00000
Br2199     Br  0.73101009  0.61399400  0.73515480     0.00500
Br2200     Br  0.74794720  0.67633108  0.80886114    -0.03900
Br2201     Br  0.66110154  0.65978798  0.83038085     0.00600
Br2202     Br  0.72114873  0.69600850  0.76094941    -0.03200
Br2203     Br  0.69369672  0.63708611  0.75643972    -0.04100
Br2204     Br  0.78582940  0.65502986  0.78622875    -0.00100
C2205       C  0.74661384  0.85451639  0.61622129     0.01300
C2206       C  0.75683606  0.85684825  0.59827540     0.04100
C2207       C  0.76813835  0.87405105  0.59467621    -0.11900
C2208       C  0.76922472  0.88901465  0.60896075     0.23400
C2209       C  0.75867379  0.88689205  0.62670157    -0.12500
C2210       C  0.74736399  0.86972162  0.63033673     0.04800
C2211       C  0.78123891  0.90717444  0.60544890     0.27300
C2212       C  0.80137498  0.90762072  0.61052102    -0.13200
C2213       C  0.81208306  0.92558004  0.60971656     0.05400
C2214       C  0.80262637  0.94320960  0.60378641    -0.09200
C2215       C  0.78288399  0.94227114  0.59714032     0.06200
C2216       C  0.77215119  0.92441004  0.59831995    -0.13500
Br2217     Br  0.76015977  0.90745297  0.64622501    -0.05600
Br2218     Br  0.75477313  0.83678642  0.57827561     0.00000
Br2219     Br  0.83928022  0.92596476  0.61797695     0.00500
Br2220     Br  0.74461724  0.92363685  0.59116022    -0.03900
Br2221     Br  0.73398340  0.86665580  0.65523429     0.00600
Br2222     Br  0.78227369  0.87712229  0.57026049    -0.03200
Br2223     Br  0.81388172  0.88372524  0.61964402    -0.04100
Br2224     Br  0.77057417  0.96530093  0.58578182    -0.00100
C2225       C  0.80313250  0.67477388  0.69566975     0.01300
C2226       C  0.80026339  0.69227827  0.70669458     0.04100
C2227       C  0.79361625  0.70955369  0.69725181    -0.11900
C2228       C  0.79003770  0.70946754  0.67693794     0.23400
C2229       C  0.79547622  0.69307022  0.66562222    -0.12500
C2230       C  0.80216355  0.67577352  0.67491708     0.04800
C2231       C  0.77845193  0.72556188  0.66789625     0.27300
C2232       C  0.75787679  0.72326809  0.66620178    -0.13200
C2233       C  0.74651022  0.73842114  0.65790402     0.05400
C2234       C  0.75573185  0.75614557  0.65141640    -0.09200
C2235       C  0.77643954  0.75830829  0.65300298     0.06200
C2236       C  0.78772877  0.74303159  0.66130891    -0.13500
Br2237     Br  0.79280634  0.69418382  0.63742667    -0.05600
Br2238     Br  0.80399598  0.69287342  0.73478956     0.00000
Br2239     Br  0.71817474  0.73486941  0.65665964     0.00500
Br2240     Br  0.81589889  0.74598966  0.66403958    -0.03900
Br2241     Br  0.81005156  0.65363912  0.65895437     0.00600
Br2242     Br  0.78824786  0.73316558  0.71214500    -0.03200
Br2243     Br  0.74516657  0.69946919  0.67594744    -0.04100
Br2244     Br  0.78971822  0.78168294  0.64308743    -0.00100
C2245       C  0.68736455  0.79809760  0.68270583     0.01300
C2246       C  0.66856345  0.80663276  0.68477094     0.04100
C2247       C  0.65658039  0.80168456  0.70102812    -0.11900
C2248       C  0.66337092  0.78816202  0.71525874     0.23400
C2249       C  0.68261393  0.78052551  0.71378698    -0.12500
C2250       C  0.69467160  0.78563174  0.69769104     0.04800
C2251       C  0.65023939  0.78091449  0.73129533     0.27300
C2252       C  0.65264919  0.78803893  0.75056566    -0.13200
C2253       C  0.64429198  0.77759229  0.76654243     0.05400
C2254       C  0.63282932  0.76044879  0.76309735    -0.09200
C2255       C  0.62830447  0.75498121  0.74365144     0.06200
C2256       C  0.63736025  0.76487268  0.72780397    -0.13500
Br2257     Br  0.69212271  0.76225121  0.73347397    -0.05600
Br2258     Br  0.65965918  0.82577980  0.66572699     0.00000
Br2259     Br  0.65039108  0.78563185  0.79298753     0.00500
Br2260     Br  0.63331192  0.75542702  0.70143214    -0.03900
Br2261     Br  0.72079837  0.77456742  0.69590336     0.00600
Br2262     Br  0.63077898  0.81311980  0.70372092    -0.03200
Br2263     Br  0.66851510  0.81136861  0.75496722    -0.04100
Br2264     Br  0.60980711  0.73367812  0.73875133    -0.00100
C2265       C  0.48589800  0.46420350  0.46210358     0.01300
C2266       C  0.47724594  0.47337852  0.47928623     0.04100
C2267       C  0.48790699  0.48720360  0.49080610    -0.11900
C2268       C  0.50800617  0.49072144  0.48740626     0.23400
C2269       C  0.51684101  0.48228550  0.47087910    -0.12500
C2270       C  0.50548618  0.47147682  0.45711106     0.04800
C2271       C  0.51953356  0.50429340  0.50066050     0.27300
C2272       C  0.52170290  0.52438157  0.49600691    -0.13200
C2273       C  0.53180346  0.53757492  0.50880500     0.05400
C2274       C  0.54138219  0.53057693  0.52663437    -0.09200
C2275       C  0.53680865  0.51025988  0.53167711     0.06200
C2276       C  0.52688457  0.49739551  0.51856105    -0.13500
Br2277     Br  0.54476326  0.48652268  0.46672607    -0.05600
Br2278     Br  0.45137951  0.46683597  0.48931698     0.00000
Br2279     Br  0.52865386  0.56501256  0.50132266     0.00500
Br2280     Br  0.52357653  0.46962104  0.52481839    -0.03900
Br2281     Br  0.51622433  0.47323649  0.43067715     0.00600
Br2282     Br  0.47510970  0.50153091  0.51177704    -0.03200
Br2283     Br  0.50992593  0.53365858  0.47170246    -0.04100
Br2284     Br  0.54209862  0.49882932  0.55688420    -0.00100
C2285       C  0.51869899  0.63061665  0.71239163     0.01300
C2286       C  0.51972285  0.62415244  0.73212277     0.04100
C2287       C  0.53069008  0.63504724  0.74599780    -0.11900
C2288       C  0.54090778  0.65234867  0.74023252     0.23400
C2289       C  0.53978626  0.65890765  0.72057340    -0.12500
C2290       C  0.52854520  0.64821488  0.70675576     0.04800
C2291       C  0.55364235  0.66312392  0.75454510     0.27300
C2292       C  0.54630312  0.67937021  0.76513389    -0.13200
C2293       C  0.55892377  0.69038246  0.77749873     0.05400
C2294       C  0.57886823  0.68488303  0.77975205    -0.09200
C2295       C  0.58598087  0.66819147  0.76958233     0.06200
C2296       C  0.57340987  0.65740397  0.75705380    -0.13500
Br2297     Br  0.55373166  0.68261612  0.71265334    -0.05600
Br2298     Br  0.50653351  0.60003099  0.74008934     0.00000
Br2299     Br  0.54876892  0.71288438  0.79148305     0.00500
Br2300     Br  0.58331537  0.63494795  0.74279549    -0.03900
Br2301     Br  0.52566810  0.65835414  0.68039528     0.00600
Br2302     Br  0.53181389  0.62637794  0.77299473    -0.03200
Br2303     Br  0.51890619  0.68641712  0.76262864    -0.04100
Br2304     Br  0.61341440  0.66093572  0.77132951    -0.00100
C2305       C  0.50948393  0.59345244  0.65036500     0.01300
C2306       C  0.52150998  0.57653186  0.65149226     0.04100
C2307       C  0.52853747  0.56752624  0.63417095    -0.11900
C2308       C  0.52365656  0.57541305  0.61556084     0.23400
C2309       C  0.51160203  0.59233708  0.61451528    -0.12500
C2310       C  0.50454733  0.60127820  0.63180057     0.04800
C2311       C  0.53174008  0.56653254  0.59707496     0.27300
C2312       C  0.55062131  0.57185876  0.59054203    -0.13200
C2313       C  0.55838876  0.56410777  0.57291635     0.05400
C2314       C  0.54660882  0.55134861  0.56018858    -0.09200
C2315       C  0.52651875  0.54771749  0.56665781     0.06200
C2316       C  0.51999485  0.55414018  0.58539837    -0.13500
Br2317     Br  0.50487536  0.60345090  0.58931372    -0.05600
Br2318     Br  0.52774059  0.56527728  0.67680695     0.00000
Br2319     Br  0.58576240  0.57173674  0.56749858     0.00500
Br2320     Br  0.49413142  0.54676782  0.59526531    -0.03900
Br2321     Br  0.48865159  0.62478905  0.63007272     0.00600
Br2322     Br  0.54473035  0.54427561  0.63592434    -0.03200
Br2323     Br  0.56584364  0.59032552  0.60614936    -0.04100
Br2324     Br  0.50531674  0.53809638  0.55016952    -0.00100
C2325       C  0.45243364  0.60985795  0.69246935     0.01300
C2326       C  0.44157125  0.59190266  0.69212639     0.04100
C2327       C  0.42226332  0.59114121  0.69988987    -0.11900
C2328       C  0.41367162  0.60829174  0.70773905     0.23400
C2329       C  0.42398156  0.62642265  0.70688713    -0.12500
C2330       C  0.44310744  0.62729516  0.69893890     0.04800
C2331       C  0.39432835  0.60735629  0.71802157     0.27300
C2332       C  0.37670548  0.61054077  0.70765563    -0.13200
C2333       C  0.35873430  0.61254447  0.71788196     0.05400
C2334       C  0.35839294  0.61183516  0.73871734    -0.09200
C2335       C  0.37612636  0.60792837  0.74896077     0.06200
C2336       C  0.39387313  0.60527859  0.73857055    -0.13500
Br2337     Br  0.41222014  0.64991756  0.71772232    -0.05600
Br2338     Br  0.45319126  0.56804329  0.68201816     0.00000
Br2339     Br  0.33509409  0.61771472  0.70296198     0.00500
Br2340     Br  0.41789249  0.59899323  0.75238727    -0.03900
Br2341     Br  0.45617325  0.65266919  0.69629528     0.00600
Br2342     Br  0.40793022  0.56641329  0.70098729    -0.03200
Br2343     Br  0.37747208  0.61281468  0.67939771    -0.04100
Br2344     Br  0.37656166  0.60605504  0.77725868    -0.00100
C2345       C  0.72959166  0.51900270  0.61497463     0.01300
C2346       C  0.72792484  0.51402309  0.63503999     0.04100
C2347       C  0.73833581  0.52498965  0.64925115    -0.11900
C2348       C  0.75050839  0.54098608  0.64345725     0.23400
C2349       C  0.75226010  0.54586827  0.62336099    -0.12500
C2350       C  0.74179520  0.53492895  0.60916708     0.04800
C2351       C  0.76060686  0.55339844  0.65847581     0.27300
C2352       C  0.75142440  0.57071247  0.66520508    -0.13200
C2353       C  0.76117253  0.58314249  0.67859389     0.05400
C2354       C  0.77989472  0.57803210  0.68596587    -0.09200
C2355       C  0.78916159  0.56073625  0.67926133     0.06200
C2356       C  0.77952756  0.54842865  0.66551402    -0.13500
Br2357     Br  0.76935405  0.56735298  0.61533406    -0.05600
Br2358     Br  0.71129120  0.49211627  0.64298008     0.00000
Br2359     Br  0.74948396  0.60806829  0.68563434     0.00500
Br2360     Br  0.79213399  0.52477128  0.65625790    -0.03900
Br2361     Br  0.74463212  0.54129668  0.58168950     0.00600
Br2362     Br  0.73613482  0.51801655  0.67665386    -0.03200
Br2363     Br  0.72541098  0.57742111  0.65597298    -0.04100
Br2364     Br  0.81487544  0.55389644  0.68907459    -0.00100
C2365       C  0.67492304  0.50316467  0.56929300     0.01300
C2366       C  0.65920438  0.48921701  0.56955416     0.04100
C2367       C  0.64022611  0.49464608  0.56309237    -0.11900
C2368       C  0.63641479  0.51422886  0.55703020     0.23400
C2369       C  0.65211961  0.52790625  0.55584853    -0.12500
C2370       C  0.67135798  0.52228668  0.56147359     0.04800
C2371       C  0.61563859  0.52046729  0.55312589     0.27300
C2372       C  0.60802209  0.52035841  0.53403259    -0.13200
C2373       C  0.58759181  0.52228143  0.53092587     0.05400
C2374       C  0.57512536  0.53039533  0.54575436    -0.09200
C2375       C  0.58229105  0.52656931  0.56556996     0.06200
C2376       C  0.60258505  0.52296568  0.56889836    -0.13500
Br2377     Br  0.64700440  0.55449268  0.54691277    -0.05600
Br2378     Br  0.66277268  0.46289875  0.57990283     0.00000
Br2379     Br  0.57767912  0.50207590  0.51345026     0.00500
Br2380     Br  0.61305791  0.52199373  0.59536611    -0.03900
Br2381     Br  0.69293101  0.54055440  0.55726973     0.00600
Br2382     Br  0.61906234  0.47532384  0.56302946    -0.03200
Br2383     Br  0.62520128  0.51519430  0.51208770    -0.04100
Br2384     Br  0.56613315  0.52320872  0.58911407    -0.00100
C2385       C  0.78055289  0.36517468  0.59088552     0.01300
C2386       C  0.78559460  0.38227388  0.60164195     0.04100
C2387       C  0.77642685  0.40041765  0.59745113    -0.11900
C2388       C  0.76222336  0.40164976  0.58242926     0.23400
C2389       C  0.75794849  0.38489012  0.57095177    -0.12500
C2390       C  0.76692901  0.36661762  0.57527752     0.04800
C2391       C  0.75040371  0.41998393  0.58026518     0.27300
C2392       C  0.73262835  0.42169376  0.59083538    -0.13200
C2393       C  0.72280807  0.43992755  0.59154545     0.05400
C2394       C  0.72987968  0.45620000  0.58052140    -0.09200
C2395       C  0.74725518  0.45428050  0.56929515     0.06200
C2396       C  0.75763772  0.43626394  0.56934994    -0.13500
Br2397     Br  0.73938073  0.38706084  0.54964456    -0.05600
Br2398     Br  0.80540351  0.38104237  0.62193936     0.00000
Br2399     Br  0.70116473  0.44318263  0.60958053     0.00500
Br2400     Br  0.78221349  0.43403493  0.55528919    -0.03900
Br2401     Br  0.75924477  0.34333596  0.56085746     0.00600
Br2402     Br  0.78300592  0.42362740  0.61256028    -0.03200
Br2403     Br  0.72218950  0.39914669  0.60504311    -0.04100
Br2404     Br  0.75732912  0.47669114  0.55470164    -0.00100
C2405       C  0.64254204  0.71740989  0.51257548     0.01300
C2406       C  0.66173006  0.72485735  0.50884052     0.04100
C2407       C  0.67065338  0.73813997  0.52200650    -0.11900
C2408       C  0.66065768  0.74387075  0.53915785     0.23400
C2409       C  0.64158179  0.73642414  0.54303520    -0.12500
C2410       C  0.63260477  0.72304303  0.52991497     0.04800
C2411       C  0.67138230  0.75532355  0.55438449     0.27300
C2412       C  0.68339646  0.74509744  0.56778502    -0.13200
C2413       C  0.69389097  0.75549820  0.58222915     0.05400
C2414       C  0.69260164  0.77633361  0.58329237    -0.09200
C2415       C  0.68085853  0.78663378  0.56961204     0.06200
C2416       C  0.67009287  0.77611282  0.55529478    -0.13500
Br2417     Br  0.62804999  0.74434098  0.56664437    -0.05600
Br2418     Br  0.67677000  0.71538443  0.48673851     0.00000
Br2419     Br  0.70913838  0.74071635  0.60109037     0.00500
Br2420     Br  0.65351172  0.79005055  0.53699490    -0.03900
Br2421     Br  0.60683480  0.71237831  0.53600236     0.00600
Br2422     Br  0.69704069  0.74791453  0.51710851    -0.03200
Br2423     Br  0.68524976  0.71661154  0.56638185    -0.04100
Br2424     Br  0.68045483  0.81516841  0.56977274    -0.00100
C2425       C  0.61022108  0.65365913  0.49609031     0.01300
C2426       C  0.59193043  0.64688298  0.48853141     0.04100
C2427       C  0.58414362  0.62842259  0.49446673    -0.11900
C2428       C  0.59398327  0.61688476  0.50863353     0.23400
C2429       C  0.61209763  0.62353892  0.51629639    -0.12500
C2430       C  0.62043257  0.64161564  0.50976347     0.04800
C2431       C  0.58444314  0.59834816  0.51609659     0.27300
C2432       C  0.56870977  0.59974578  0.52927960    -0.13200
C2433       C  0.55701274  0.58302390  0.53378103     0.05400
C2434       C  0.56326970  0.56329611  0.52835287    -0.09200
C2435       C  0.57707314  0.56305631  0.51227664     0.06200
C2436       C  0.58825993  0.58012246  0.50719373    -0.13500
Br2437     Br  0.62516500  0.60799560  0.53613866    -0.05600
Br2438     Br  0.57640999  0.66324237  0.47116161     0.00000
Br2439     Br  0.53088969  0.58926903  0.54371028     0.00500
Br2440     Br  0.60797384  0.57918744  0.48663577    -0.03900
Br2441     Br  0.64630806  0.64915130  0.51903384     0.00600
Br2442     Br  0.55953629  0.61897151  0.48355665    -0.03200
Br2443     Br  0.56318672  0.62504285  0.54123011    -0.04100
Br2444     Br  0.57545745  0.54396086  0.49147998    -0.00100
C2445       C  0.62330406  0.70377633  0.44453713     0.01300
C2446       C  0.63445032  0.69425138  0.42990554     0.04100
C2447       C  0.63384283  0.70111283  0.41033082    -0.11900
C2448       C  0.62241139  0.71776578  0.40540786     0.23400
C2449       C  0.61116741  0.72716417  0.41999300    -0.12500
C2450       C  0.61149324  0.72011849  0.43946210     0.04800
C2451       C  0.62344014  0.72654217  0.38536544     0.27300
C2452       C  0.63873031  0.73999703  0.38075105    -0.13200
C2453       C  0.63941836  0.74915068  0.36217435     0.05400
C2454       C  0.62451603  0.74527612  0.34822849    -0.09200
C2455       C  0.60914468  0.73190324  0.35286708     0.06200
C2456       C  0.60869239  0.72242642  0.37135685    -0.13500
Br2457     Br  0.59584249  0.75017675  0.41328686    -0.05600
Br2458     Br  0.65167649  0.67276199  0.43694685     0.00800
Br2459     Br  0.66145558  0.76620074  0.35558502     0.00500
Br2460     Br  0.58779183  0.70398854  0.37766613    -0.03900
Br2461     Br  0.59555204  0.73280741  0.45914166     0.00600
Br2462     Br  0.64908531  0.68813213  0.39029905    -0.03200
Br2463     Br  0.65860491  0.74607984  0.40012078    -0.04100
Br2464     Br  0.58819128  0.72740930  0.33426823    -0.00100
loop_ 
_geom_bond_atom_site_label_1 
_geom_bond_atom_site_label_2 
_geom_bond_distance 
_geom_bond_site_symmetry_2 
_ccdc_geom_bond_type 
C1            N2   1.359       .  A
C1            N6   1.356       .  A
C1         C2445   1.479       .  S
N2            C3   1.362       .  A
C3            N4   1.363       .  A
C3         C2425   1.494       .  S
N4            C5   1.361       .  A
C5            N6   1.358       .  A
C5         C2405   1.485       .  S
C7            N8   1.363       .  A
C7           N12   1.353       .  A
C7         C2394   1.478       .  S
N8            C9   1.366       .  A
C9           N10   1.366       .  A
C9         C2365   1.501       .  S
N10          C11   1.362       .  A
C11          N12   1.354       .  A
C11        C2345   1.478       .  S
C13          N14   1.357       .  A
C13          N18   1.360       .  A
C13        C2325   1.486       .  S
N14          C15   1.355       .  A
C15          N16   1.363       .  A
C15        C2285   1.485       .  S
N16          C17   1.365       .  A
C17          N18   1.362       .  A
C17        C2305   1.487       .  S
C19        C2274   1.615       .  S
C19        C2314   1.603       .  S
C19        C2374   1.626       .  S
C19        C2434   1.616       .  S
In20         O22   2.254       .  S
In20         O23   2.255       .  S
In20         O31   2.260       .  S
In20         O25   2.238       .  S
In20         O27   2.223       .  S
In20         O28   2.256       .  S
In20         O29   2.245       .  S
In20         O32   2.238       .  S
C21        C2234   1.478       .  S
C21          O27   1.257       .  A
C21          O29   1.261       .  A
O22          C30   1.258       .  A
O23          C30   1.260       .  A
C24        C2205   1.478       .  S
C24          O31   1.260       .  A
C24          O25   1.256       .  A
C26        C2414   1.480       .  S
C26          O28   1.264       .  A
C26          O32   1.260       .  A
C30        C2245   1.480       .  S
In33         O35   2.245       .  S
In33         O36   2.264       .  S
In33         O44   2.261       .  S
In33         O38   2.279       .  S
In33         O40   2.278       .  S
In33         O41   2.261       .  S
In33         O42   2.219       .  S
In33         O45   2.251       .  S
C34        C2254   1.478       .  S
C34          O40   1.262       .  A
C34          O42   1.256       .  A
O35          C43   1.259       .  A
O36          C43   1.263       .  A
C37        C2165   1.496       .  S
C37          O44   1.256       .  A
C37          O38   1.259       .  A
C39        C2294   1.487       .  S
C39          O41   1.265       .  A
C39          O45   1.261       .  A
C43        C2185   1.491       .  S
In46         O48   2.253       .  S
In46         O49   2.229       .  S
In46         O57   2.253       .  S
In46         O51   2.260       .  S
In46         O53   2.282       .  S
In46         O54   2.272       .  S
In46         O55   2.240       .  S
In46         O58   2.249       .  S
C47        C2194   1.487       .  S
C47          O53   1.262       .  A
C47          O55   1.256       .  A
O48          C56   1.261       .  A
O49          C56   1.260       .  A
C50        C2154   1.489       .  S
C50          O57   1.259       .  A
C50          O51   1.262       .  A
C52        C2354   1.480       .  S
C52          O54   1.260       .  A
C52          O58   1.258       .  A
C56        C2225   1.486       .  S
C59          N60   1.365       .  A
C59          N64   1.357       .  A
C59        C2125   1.486       .  S
N60          C61   1.365       .  A
C61          N62   1.360       .  A
C61        C2105   1.507       .  S
N62          C63   1.359       .  A
C63          N64   1.356       .  A
C63        C2085   1.486       .  S
C65          N66   1.359       .  A
C65          N70   1.359       .  A
C65        C2065   1.476       .  S
N66          C67   1.360       .  A
C67          N68   1.357   1_554  A
C67        C2034   1.489   1_554  S
N68          C69   1.358   1_556  A
C69          N70   1.361       .  A
C69        C2054   1.480       .  S
C71          N72   1.365       .  A
C71          N76   1.357       .  A
C71        C2145   1.487       .  S
N72          C73   1.365       .  A
C73          N74   1.363   1_655  A
C73        C2005   1.496   1_655  S
N74          C75   1.361       .  A
C75          N76   1.355   1_455  A
C75        C1985   1.488       .  S
C77        C1974   1.619       .  S
C77        C2014   1.637       .  S
C77        C2045   1.621       .  S
C77        C2114   1.623       .  S
In78         O80   2.254       .  S
In78         O81   2.249       .  S
In78         O89   2.278       .  S
In78         O83   2.263       .  S
In78         O85   2.272       .  S
In78         O86   2.251       .  S
In78         O87   2.226       .  S
In78         O90   2.262       .  S
C79        C1945   1.494       .  S
C79          O85   1.263       .  A
C79          O87   1.258       .  A
O80          C88   1.260       .  A
O81          C88   1.260       .  A
C82        C1914   1.491       .  S
C82          O89   1.260       .  A
C82          O83   1.258       .  A
C84        C1925   1.482       .  S
C84          O86   1.260       .  A
C84          O90   1.262       .  A
C88        C2025   1.482       .  S
In91         O93   2.258       .  S
In91         O94   2.236       .  S
In91        O102   2.256       .  S
In91         O96   2.253       .  S
In91         O98   2.228       .  S
In91         O99   2.266       .  S
In91        O100   2.262       .  S
In91        O103   2.244       .  S
C92        C1885   1.476       .  S
C92          O98   1.257       .  A
C92         O100   1.259       .  A
O93         C101   1.263       .  A
O94         C101   1.260       .  A
C95        C2334   1.491       .  S
C95         O102   1.260       .  A
C95          O96   1.258       .  A
C97        C1954   1.484       .  S
C97          O99   1.262       .  A
C97         O103   1.258       .  A
C101       C2094   1.477       .  S
In104       O106   2.265       .  S
In104       O107   2.258       .  S
In104       O115   2.252       .  S
In104       O109   2.242       .  S
In104       O111   2.252       .  S
In104       O112   2.250       .  S
In104       O113   2.225       .  S
In104       O116   2.243       .  S
C105       C1934   1.477       .  S
C105        O111   1.260       .  A
C105        O113   1.261       .  A
O106        C114   1.259       .  A
O107        C114   1.260       .  A
C108       C1865   1.480       .  S
C108        O115   1.259       .  A
C108        O109   1.258       .  A
C110       C1894   1.477       .  S
C110        O112   1.260       .  A
C110        O116   1.259       .  A
C114       C1994   1.482       .  S
C117        N118   1.366       .  A
C117        N122   1.356       .  A
C117       C1845   1.487       .  S
N118        C119   1.368       .  A
C119        N120   1.362       .  A
C119       C1834   1.507       .  S
N120        C121   1.359       .  A
C121        N122   1.355       .  A
C121       C1805   1.484       .  S
C123        N124   1.363       .  A
C123        N128   1.361       .  A
C123       C1794   1.490       .  S
N124        C125   1.363       .  A
C125        N126   1.361   1_545  A
C125       C1774   1.489       .  S
N126        C127   1.358   1_565  A
C127        N128   1.357       .  A
C127       C1754   1.481   1_545  S
C129        N130   1.360       .  A
C129        N134   1.356       .  A
C129       C2174   1.475       .  S
N130        C131   1.362       .  A
C131        N132   1.363   1_556  A
C131       C1734   1.479   1_556  S
N132        C133   1.361       .  A
C133        N134   1.356   1_554  A
C133       C1705   1.484       .  S
C135       C1694   1.619       .  S
C135       C1725   1.624       .  S
C135       C1765   1.628       .  S
C135       C1825   1.626       .  S
In136       O138   2.250       .  S
In136       O139   2.243       .  S
In136       O147   2.258       .  S
In136       O141   2.238       .  S
In136       O143   2.231       .  S
In136       O144   2.219       .  S
In136       O145   2.260       .  S
In136       O148   2.274       .  S
C137       C1665   1.486       .  S
C137        O143   1.260       .  A
C137        O145   1.262       .  A
O138        C146   1.263       .  A
O139        C146   1.261       .  A
C140       C1625   1.481       .  S
C140        O147   1.258       .  A
C140        O141   1.256       .  A
C142       C1645   1.471       .  S
C142        O144   1.253       .  A
C142        O148   1.260       .  A
C146       C1745   1.474       .  S
In149       O151   2.246       .  S
In149       O152   2.260       .  S
In149       O160   2.251       .  S
In149       O154   2.258       .  S
In149       O156   2.259       .  S
In149       O157   2.247       .  S
In149       O158   2.239       .  S
In149       O161   2.252       .  S
C150       C1614   1.476       .  S
C150        O156   1.260       .  A
C150        O158   1.258       .  A
O151        C159   1.259       .  A
O152        C159   1.261       .  A
C153       C2454   1.478       .  S
C153        O160   1.258       .  A
C153        O154   1.258       .  A
C155       C1674   1.481       .  S
C155        O157   1.261       .  A
C155        O161   1.259       .  A
C159       C1814   1.480       .  S
In162       O164   2.248       .  S
In162       O165   2.260       .  S
In162       O173   2.269       .  S
In162       O167   2.243       .  S
In162       O169   2.233       .  S
In162       O170   2.232       .  S
In162       O171   2.249       .  S
In162       O174   2.261       .  S
C163       C1654   1.477       .  S
C163        O169   1.261       .  A
C163        O171   1.263       .  A
O164        C172   1.260       .  A
O165        C172   1.260       .  A
C166       C1585   1.483       .  S
C166        O173   1.259       .  A
C166        O167   1.255       .  A
C168       C1605   1.479       .  S
C168        O170   1.258       .  A
C168        O174   1.261       .  A
C172       C1714   1.484       .  S
C175        N176   1.359       .  A
C175        N180   1.358       .  A
C175       C1574   1.473       .  S
N176        C177   1.359       .  A
C177        N178   1.362       .  A
C177       C1545   1.478       .  S
N178        C179   1.361       .  A
C179        N180   1.357       .  A
C179       C1525   1.484       .  S
C181        N182   1.364       .  A
C181        N186   1.359       .  A
C181       C2214   1.488       .  S
N182        C183   1.364       .  A
C183        N184   1.363       .  A
C183       C1505   1.505       .  S
N184        C185   1.360       .  A
C185        N186   1.355       .  A
C185       C1485   1.490   1_565  S
C187        N188   1.363       .  A
C187        N192   1.355       .  A
C187       C1474   1.478       .  S
N188        C189   1.365       .  A
C189        N190   1.361       .  A
C189       C1454   1.485       .  S
N190        C191   1.359       .  A
C191        N192   1.355       .  A
C191       C1434   1.483       .  S
C193       C1405   1.606       .  S
C193       C1445   1.623       .  S
C193       C1514   1.610       .  S
C193       C1554   1.611       .  S
In194       O196   2.243       .  S
In194       O197   2.262       .  S
In194       O205   2.253       .  S
In194       O199   2.254       .  S
In194       O201   2.266       .  S
In194       O202   2.245       .  S
In194       O203   2.234       .  S
In194       O206   2.249       .  S
C195       C1385   1.479       .  S
C195        O201   1.263       .  A
C195        O203   1.260       .  A
O196        C204   1.257       .  A
O197        C204   1.259       .  A
C198       C1345   1.476       .  S
C198        O205   1.257       .  A
C198        O199   1.257       .  A
C200       C1365   1.486       .  S
C200        O202   1.261       .  A
C200        O206   1.262       .  A
C204       C1425   1.482       .  S
In207       O209   2.253       .  S
In207       O210   2.256       .  S
In207       O218   2.273       .  S
In207       O212   2.254       .  S
In207       O214   2.272       .  S
In207       O215   2.267       .  S
In207       O216   2.241       .  S
In207       O219   2.249       .  S
C208       C1325   1.481       .  S
C208        O214   1.263       .  A
C208        O216   1.260       .  A
O209        C217   1.260       .  A
O210        C217   1.261       .  A
C211       C2385   1.482       .  S
C211        O218   1.258       .  A
C211        O212   1.256       .  A
C213       C1394   1.487       .  S
C213        O215   1.261       .  A
C213        O219   1.260       .  A
C217       C1534   1.481       .  S
In220       O222   2.252       .  S
In220       O223   2.249       .  S
In220       O231   2.289       .  S
In220       O225   2.285       .  S
In220       O227   2.272       .  S
In220       O228   2.251       .  S
In220       O229   2.258       .  S
In220       O232   2.277       .  S
C221       C1374   1.486       .  S
C221        O227   1.261       .  A
C221        O229   1.259       .  A
O222        C230   1.262       .  A
O223        C230   1.263       .  A
C224       C1305   1.501       .  S
C224        O231   1.259       .  A
C224        O225   1.257       .  A
C226       C1334   1.493       .  S
C226        O228   1.259       .  A
C226        O232   1.264       .  A
C230       C1494   1.491       .  S
C233        N234   1.357       .  A
C233        N238   1.358       .  A
C233       C1285   1.473       .  S
N234        C235   1.357       .  A
C235        N236   1.359       .  A
C235       C1245   1.479   1_554  S
N236        C237   1.359       .  A
C237        N238   1.358       .  A
C237       C1265   1.472       .  S
C239        N240   1.359       .  A
C239        N244   1.361       .  A
C239       C1905   1.488       .  S
N240        C241   1.358   1_565  A
C241        N242   1.361       .  A
C241       C1205   1.482       .  S
N242        C243   1.364       .  A
C243        N244   1.364   1_545  A
C243       C1234   1.498       .  S
C245        N246   1.356       .  A
C245        N250   1.366       .  A
C245       C1314   1.488       .  S
N246        C247   1.355       .  A
C247        N248   1.358       .  A
C247       C1165   1.482       .  S
N248        C249   1.361       .  A
C249        N250   1.369       .  A
C249       C1194   1.486       .  S
C251       C1185   1.626       .  S
C251       C1225   1.613       .  S
C251       C1274   1.616       .  S
C251       C1685   1.605       .  S
In252       O254   2.225       .  S
In252       O255   2.251       .  S
In252       O263   2.267       .  S
In252       O257   2.264       .  S
In252       O259   2.253       .  S
In252       O260   2.285       .  S
In252       O261   2.233       .  S
In252       O264   2.219       .  S
C253       C1145   1.473       .  S
C253        O259   1.262       .  A
C253        O261   1.259       .  A
O254        C262   1.260       .  A
O255        C262   1.262       .  A
C256       C1465   1.492       .  S
C256        O263   1.259       .  A
C256        O257   1.259       .  A
C258       C1214   1.485       .  S
C258        O260   1.266       .  A
C258        O264   1.254       .  A
C262       C1125   1.474       .  S
In265       O267   2.261       .  S
In265       O268   2.233       .  S
In265       O276   2.267       .  S
In265       O270   2.268       .  S
In265       O272   2.243       .  S
In265       O273   2.249       .  S
In265       O274   2.236       .  S
In265       O277   2.261       .  S
C266       C1114   1.477       .  S
C266        O272   1.262       .  A
C266        O274   1.259       .  A
O267        C275   1.261       .  A
O268        C275   1.258       .  A
C269       C1085   1.497       .  S
C269        O276   1.257       .  A
C269        O270   1.260       .  A
C271       C1174   1.479       .  S
C271        O273   1.260       .  A
C271        O277   1.262       .  A
C275       C1154   1.476       .  S
In278       O280   2.265       .  S
In278       O281   2.228       .  S
In278       O289   2.272       .  S
In278       O283   2.249       .  S
In278       O285   2.254       .  S
In278       O286   2.255       .  S
In278       O287   2.229       .  S
In278       O290   2.251       .  S
C279       C1134   1.479       .  S
C279        O285   1.262       .  A
C279        O287   1.260       .  A
O280        C288   1.261       .  A
O281        C288   1.257       .  A
C282       C2134   1.489       .  S
C282        O289   1.261       .  A
C282        O283   1.257       .  A
C284       C1254   1.482       .  S
C284        O286   1.261       .  A
C284        O290   1.260       .  A
C288       C1105   1.481       .  S
C291        N292   1.358       .  A
C291        N296   1.361       .  A
C291       C1074   1.485       .  S
N292        C293   1.356       .  A
C293        N294   1.362   1_545  A
C293       C1034   1.484   1_545  S
N294        C295   1.364   1_565  A
C295        N296   1.362       .  A
C295       C1054   1.488       .  S
C297        N298   1.359       .  A
C297        N302   1.354       .  A
C297       C1634   1.475       .  S
N298        C299   1.362   1_655  A
C299        N300   1.362       .  A
C299       C1005   1.498       .  S
N300        C301   1.360       .  A
C301        N302   1.353   1_455  A
C301        C985   1.477       .  S
C303        N304   1.355       .  A
C303        N308   1.359       .  A
C303       C1874   1.481       .  S
N304        C305   1.353       .  A
C305        N306   1.360       .  A
C305        C945   1.486       .  S
N306        C307   1.362       .  A
C307        N308   1.361       .  A
C307        C965   1.475       .  S
C309        C974   1.627       .  S
C309       C1014   1.607       .  S
C309       C1045   1.627       .  S
C309       C1414   1.607       .  S
In310       O312   2.229       .  S
In310       O313   2.261       .  S
In310       O321   2.255       .  S
In310       O315   2.272       .  S
In310       O317   2.232       .  S
In310       O318   2.226       .  S
In310       O319   2.277       .  S
In310       O322   2.266       .  S
C311        C925   1.482       .  S
C311        O317   1.256       .  A
C311        O319   1.261       .  A
O312        C320   1.259       .  A
O313        C320   1.263       .  A
C314       C2074   1.489       .  S
C314        O321   1.258       .  A
C314        O315   1.259       .  A
C316        C994   1.475       .  S
C316        O318   1.258       .  A
C316        O322   1.265       .  A
C320        C905   1.481       .  S
In323       O325   2.279       .  S
In323       O326   2.215       .  S
In323       O334   2.289       .  S
In323       O328   2.260       .  S
In323       O330   2.223       .  S
In323       O331   2.251       .  S
In323       O332   2.271       .  S
In323       O335   2.248       .  S
C324        C885   1.484       .  S
C324        O330   1.258       .  A
C324        O332   1.265       .  A
O325        C333   1.263       .  A
O326        C333   1.254       .  A
C327        C865   1.490       .  S
C327        O334   1.261       .  A
C327        O328   1.256       .  A
C329        C954   1.484       .  S
C329        O331   1.263       .  A
C329        O335   1.265       .  A
C333        C934   1.479       .  S
In336       O338   2.260       .  S
In336       O339   2.227       .  S
In336       O347   2.273       .  S
In336       O341   2.275       .  S
In336       O343   2.249       .  S
In336       O344   2.265       .  S
In336       O345   2.259       .  S
In336       O348   2.257       .  S
C337        C914   1.485       .  S
C337        O343   1.261       .  A
C337        O345   1.261       .  A
O338        C346   1.262       .  A
O339        C346   1.258       .  A
C340       C1854   1.498       .  S
C340        O347   1.258       .  A
C340        O341   1.260       .  A
C342       C1025   1.482       .  S
C342        O344   1.260       .  A
C342        O348   1.259       .  A
C346        C894   1.481       .  S
C349        N350   1.361       .  A
C349        N354   1.358       .  A
C349        C854   1.477       .  S
N350        C351   1.363       .  A
C351        N352   1.360       .  A
C351        C834   1.491       .  S
N352        C353   1.357       .  A
C353        N354   1.357       .  A
C353        C805   1.475       .  S
C355        N356   1.357       .  A
C355        N360   1.364       .  A
C355       C1354   1.487       .  S
N356        C357   1.353       .  A
C357        N358   1.358       .  A
C357        C765   1.476       .  S
N358        C359   1.361       .  A
C359        N360   1.364       .  A
C359        C785   1.481       .  S
C361        N362   1.358       .  A
C361        N366   1.354       .  A
C361       C1594   1.481       .  S
N362        C363   1.369       .  A
C363        N364   1.360       .  A
C363        C745   1.486       .  S
N364        C365   1.359       .  A
C365        N366   1.362       .  A
C365        C734   1.478       .  S
C367        C754   1.626       .  S
C367        C794   1.626       .  S
C367        C825   1.614       .  S
C367       C1965   1.603       .  S
In368       O370   2.259       .  S
In368       O371   2.229       .  S
In368       O379   2.258       .  S
In368       O373   2.253       .  S
In368       O375   2.245       .  S
In368       O376   2.238       .  S
In368       O377   2.251       .  S
In368       O380   2.271       .  S
C369        C714   1.481       .  S
C369        O375   1.260       .  A
C369        O377   1.260       .  A
O370        C378   1.261       .  A
O371        C378   1.258       .  A
C372       C1785   1.478       .  S
C372        O379   1.260       .  A
C372        O373   1.259       .  A
C374        C774   1.480       .  S
C374        O376   1.258       .  A
C374        O380   1.261       .  A
C378        C685   1.475       .  S
In381       O383   2.272       .  S
In381       O384   2.230       .  S
In381       O392   2.274       .  S
In381       O386   2.263       .  S
In381       O388   2.252       .  S
In381       O389   2.252       .  S
In381       O390   2.238       .  S
In381       O393   2.279       .  S
C382        C665   1.476       .  S
C382        O388   1.262       .  A
C382        O390   1.260       .  A
O383        C391   1.263       .  A
O384        C391   1.258       .  A
C385        C645   1.497       .  S
C385        O392   1.259       .  A
C385        O386   1.258       .  A
C387        C725   1.488       .  S
C387        O389   1.256       .  A
C387        O393   1.260       .  A
C391        C705   1.483       .  S
In394       O396   2.242       .  S
In394       O397   2.236       .  S
In394       O405   2.243       .  S
In394       O399   2.264       .  S
In394       O401   2.261       .  S
In394       O402   2.243       .  S
In394       O403   2.229       .  S
In394       O406   2.257       .  S
C395        C694   1.473       .  S
C395        O401   1.263       .  A
C395        O403   1.256       .  A
O396        C404   1.261       .  A
O397        C404   1.263       .  A
C398       C1565   1.489       .  S
C398        O405   1.257       .  A
C398        O399   1.259       .  A
C400        C814   1.475       .  S
C400        O402   1.257       .  A
C400        O406   1.261       .  A
C404        C674   1.479       .  S
C407        N408   1.362       .  A
C407        N412   1.360       .  A
C407       C1094   1.486       .  S
N408        C409   1.361       .  A
C409        N410   1.361       .  A
C409        C625   1.483       .  S
N410        C411   1.361       .  A
C411        N412   1.360       .  A
C411        C614   1.487       .  S
C413        N414   1.358       .  A
C413        N418   1.363       .  A
C413        C874   1.485       .  S
N414        C415   1.355       .  A
C415        N416   1.357       .  A
C415        C565   1.476       .  S
N416        C417   1.358       .  A
C417        N418   1.363       .  A
C417        C585   1.482       .  S
C419        N420   1.359       .  A
C419        N424   1.365       .  A
C419        C654   1.491       .  S
N420        C421   1.356       .  A
C421        N422   1.359       .  A
C421        C525   1.480       .  S
N422        C423   1.363       .  A
C423        N424   1.366       .  A
C423        C554   1.498       .  S
C425        C545   1.619       .  S
C425        C594   1.618       .  S
C425        C634   1.624       .  S
C425       C2265   1.608       .  S
In426       O428   2.259       .  S
In426       O429   2.260       .  S
In426       O437   2.261       .  S
In426       O431   2.259       .  S
In426       O433   2.260       .  S
In426       O434   2.238       .  S
In426       O435   2.239       .  S
In426       O438   2.256       .  S
C427        C485   1.487       .  S
C427        O433   1.262       .  A
C427        O435   1.260       .  A
O428        C436   1.257       .  A
O429        C436   1.257       .  A
C430       C1065   1.491       .  S
C430        O437   1.258       .  A
C430        O431   1.258       .  A
C432        C505   1.473       .  S
C432        O434   1.259       .  A
C432        O438   1.262       .  A
C436        C605   1.476       .  S
In439       O441   2.280       .  S
In439       O442   2.232       .  S
In439       O450   2.248       .  S
In439       O444   2.256       .  S
In439       O446   2.251       .  S
In439       O447   2.238       .  S
In439       O448   2.232       .  S
In439       O451   2.267       .  S
C440        C514   1.474       .  S
C440        O446   1.262       .  A
C440        O448   1.260       .  A
O441        C449   1.263       .  A
O442        C449   1.257       .  A
C443       C1294   1.479       .  S
C443        O450   1.259       .  A
C443        O444   1.259       .  A
C445        C465   1.483       .  S
C445        O447   1.259       .  A
C445        O451   1.260       .  A
C449        C534   1.486       .  S
In452       O454   2.254       .  S
In452       O455   2.255       .  S
In452       O463   2.266       .  S
In452       O457   2.249       .  S
In452       O459   2.242       .  S
In452       O460   2.225       .  S
In452       O461   2.235       .  S
In452       O464   2.278       .  S
C453        C474   1.469       .  S
C453        O459   1.261       .  A
C453        O461   1.260       .  A
O454        C462   1.260       .  A
O455        C462   1.260       .  A
C456        C845   1.489       .  S
C456        O463   1.261       .  A
C456        O457   1.258       .  A
C458        C494   1.476       .  S
C458        O460   1.256       .  A
C458        O464   1.261       .  A
C462        C574   1.481       .  S
C465        C466   1.417       .  A
C465        C470   1.412       .  A
C466        C467   1.410       .  A
C466       Br478   1.931       .  S
C467        C468   1.408       .  A
C467       Br482   1.932       .  S
C468        C471   1.481       .  S
C468        C469   1.406       .  A
C469        C470   1.405       .  A
C469       Br477   1.930       .  S
C470       Br481   1.930       .  S
C471        C472   1.410       .  A
C471        C476   1.408       .  A
C472        C473   1.409       .  A
C472       Br483   1.927       .  S
C473        C474   1.408       .  A
C473       Br479   1.929       .  S
C474        C475   1.410       .  A
C475        C476   1.402       .  A
C475       Br484   1.933       .  S
C476       Br480   1.932       .  S
C485        C486   1.415       .  A
C485        C490   1.417       .  A
C486        C487   1.407       .  A
C486       Br498   1.933       .  S
C487        C488   1.408       .  A
C487       Br502   1.931       .  S
C488        C491   1.484       .  S
C488        C489   1.405       .  A
C489        C490   1.410       .  A
C489       Br497   1.929       .  S
C490       Br501   1.929       .  S
C491        C492   1.410       .  A
C491        C496   1.408       .  A
C492        C493   1.411       .  A
C492       Br503   1.926       .  S
C493        C494   1.410       .  A
C493       Br499   1.927       .  S
C494        C495   1.410       .  A
C495        C496   1.402       .  A
C495       Br504   1.931       .  S
C496       Br500   1.932       .  S
C505        C506   1.410       .  A
C505        C510   1.410       .  A
C506        C507   1.406       .  A
C506       Br518   1.931       .  S
C507        C508   1.410       .  A
C507       Br522   1.933       .  S
C508        C511   1.482       .  S
C508        C509   1.407       .  A
C509        C510   1.408       .  A
C509       Br517   1.928       .  S
C510       Br521   1.928       .  S
C511        C512   1.407       .  A
C511        C516   1.408       .  A
C512        C513   1.406       .  A
C512       Br523   1.928       .  S
C513        C514   1.409       .  A
C513       Br519   1.929       .  S
C514        C515   1.413       .  A
C515        C516   1.406       .  A
C515       Br524   1.932       .  S
C516       Br520   1.930       .  S
C525        C526   1.408       .  A
C525        C530   1.410       .  A
C526        C527   1.410       .  A
C526       Br538   1.929       .  S
C527        C528   1.411       .  A
C527       Br542   1.927       .  S
C528        C531   1.493       .  S
C528        C529   1.412       .  A
C529        C530   1.411       .  A
C529       Br537   1.930       .  S
C530       Br541   1.928       .  S
C531        C532   1.409       .  A
C531        C536   1.412       .  A
C532        C533   1.408       .  A
C532       Br543   1.930       .  S
C533        C534   1.414       .  A
C533       Br539   1.933       .  S
C534        C535   1.412       .  A
C535        C536   1.413       .  A
C535       Br544   1.930       .  S
C536       Br540   1.928       .  S
C545        C546   1.452       .  A
C545        C550   1.457       .  A
C546        C547   1.418       .  A
C546       Br558   1.923       .  S
C547        C548   1.396       .  A
C547       Br562   1.939       .  S
C548        C551   1.500       .  S
C548        C549   1.396       .  A
C549        C550   1.420       .  A
C549       Br557   1.945       .  S
C550       Br561   1.921       .  S
C551        C552   1.411       .  A
C551        C556   1.409       .  A
C552        C553   1.415       .  A
C552       Br563   1.931       .  S
C553        C554   1.417       .  A
C553       Br559   1.930       .  S
C554        C555   1.417       .  A
C555        C556   1.412       .  A
C555       Br564   1.930       .  S
C556       Br560   1.930       .  S
C565        C566   1.409       .  A
C565        C570   1.411       .  A
C566        C567   1.407       .  A
C566       Br578   1.931       .  S
C567        C568   1.410       .  A
C567       Br582   1.928       .  S
C568        C571   1.487       .  S
C568        C569   1.409       .  A
C569        C570   1.409       .  A
C569       Br577   1.928       .  S
C570       Br581   1.930       .  S
C571        C572   1.408       .  A
C571        C576   1.409       .  A
C572        C573   1.409       .  A
C572       Br583   1.932       .  S
C573        C574   1.414       .  A
C573       Br579   1.931       .  S
C574        C575   1.410       .  A
C575        C576   1.410       .  A
C575       Br584   1.928       .  S
C576       Br580   1.928       .  S
C585        C586   1.413       .  A
C585        C590   1.411       .  A
C586        C587   1.409       .  A
C586       Br598   1.932       .  S
C587        C588   1.409       .  A
C587       Br602   1.928       .  S
C588        C591   1.488       .  S
C588        C589   1.409       .  A
C589        C590   1.408       .  A
C589       Br597   1.931       .  S
C590       Br601   1.928       .  S
C591        C592   1.394       .  A
C591        C596   1.400       .  A
C592        C593   1.402       .  A
C592       Br603   1.935       .  S
C593        C594   1.444       .  A
C593       Br599   1.931       .  S
C594        C595   1.460       .  A
C595        C596   1.420       .  A
C595       Br604   1.938       .  S
C596       Br600   1.937       .  S
C605        C606   1.410       .  A
C605        C610   1.408       .  A
C606        C607   1.407       .  A
C606       Br618   1.932       .  S
C607        C608   1.410       .  A
C607       Br622   1.930       .  S
C608        C611   1.492       .  S
C608        C609   1.413       .  A
C609        C610   1.412       .  A
C609       Br617   1.927       .  S
C610       Br621   1.929       .  S
C611        C612   1.410       .  A
C611        C616   1.410       .  A
C612        C613   1.411       .  A
C612       Br623   1.930       .  S
C613        C614   1.413       .  A
C613       Br619   1.929       .  S
C614        C615   1.412       .  A
C615        C616   1.410       .  A
C615       Br624   1.929       .  S
C616       Br620   1.931       .  S
C625        C626   1.411       .  A
C625        C630   1.406       .  A
C626        C627   1.415       .  A
C626       Br638   1.927       .  S
C627        C628   1.413       .  A
C627       Br642   1.929       .  S
C628        C631   1.504       .  S
C628        C629   1.414       .  A
C629        C630   1.409       .  A
C629       Br637   1.921       .  S
C630       Br641   1.931       .  S
C631        C632   1.397       .  A
C631        C636   1.399       .  A
C632        C633   1.421       .  A
C632       Br643   1.942       .  S
C633        C634   1.460       .  A
C633       Br639   1.940       .  S
C634        C635   1.458       .  A
C635        C636   1.420       .  A
C635       Br644   1.941       .  S
C636       Br640   1.940       .  S
C645        C646   1.419       .  A
C645        C650   1.418       .  A
C646        C647   1.413       .  A
C646       Br658   1.933       .  S
C647        C648   1.409       .  A
C647       Br662   1.932       .  S
C648        C651   1.494       .  S
C648        C649   1.407       .  A
C649        C650   1.412       .  A
C649       Br657   1.929       .  S
C650       Br661   1.930       .  S
C651        C652   1.409       .  A
C651        C656   1.410       .  A
C652        C653   1.410       .  A
C652       Br663   1.931       .  S
C653        C654   1.416       .  A
C653       Br659   1.931       .  S
C654        C655   1.414       .  A
C655        C656   1.413       .  A
C655       Br664   1.928       .  S
C656       Br660   1.928       .  S
C665        C666   1.411       .  A
C665        C670   1.411       .  A
C666        C667   1.406       .  A
C666       Br678   1.931       .  S
C667        C668   1.410       .  A
C667       Br682   1.933       .  S
C668        C671   1.484       .  S
C668        C669   1.409       .  A
C669        C670   1.408       .  A
C669       Br677   1.929       .  S
C670       Br681   1.929       .  S
C671        C672   1.409       .  A
C671        C676   1.409       .  A
C672        C673   1.410       .  A
C672       Br683   1.929       .  S
C673        C674   1.413       .  A
C673       Br679   1.930       .  S
C674        C675   1.414       .  A
C675        C676   1.404       .  A
C675       Br684   1.934       .  S
C676       Br680   1.934       .  S
C685        C686   1.413       .  A
C685        C690   1.411       .  A
C686        C687   1.407       .  A
C686       Br698   1.927       .  S
C687        C688   1.407       .  A
C687       Br702   1.929       .  S
C688        C691   1.480       .  S
C688        C689   1.407       .  A
C689        C690   1.404       .  A
C689       Br697   1.930       .  S
C690       Br701   1.929       .  S
C691        C692   1.409       .  A
C691        C696   1.407       .  A
C692        C693   1.404       .  A
C692       Br703   1.932       .  S
C693        C694   1.413       .  A
C693       Br699   1.935       .  S
C694        C695   1.410       .  A
C695        C696   1.408       .  A
C695       Br704   1.927       .  S
C696       Br700   1.927       .  S
C705        C706   1.414       .  A
C705        C710   1.413       .  A
C706        C707   1.411       .  A
C706       Br718   1.929       .  S
C707        C708   1.409       .  A
C707       Br722   1.929       .  S
C708        C711   1.487       .  S
C708        C709   1.408       .  A
C709        C710   1.406       .  A
C709       Br717   1.930       .  S
C710       Br721   1.932       .  S
C711        C712   1.409       .  A
C711        C716   1.408       .  A
C712        C713   1.406       .  A
C712       Br723   1.932       .  S
C713        C714   1.414       .  A
C713       Br719   1.933       .  S
C714        C715   1.413       .  A
C715        C716   1.410       .  A
C715       Br724   1.930       .  S
C716       Br720   1.927       .  S
C725        C726   1.412       .  A
C725        C730   1.415       .  A
C726        C727   1.414       .  A
C726       Br738   1.928       .  S
C727        C728   1.412       .  A
C727       Br742   1.928       .  S
C728        C731   1.495       .  S
C728        C729   1.409       .  A
C729        C730   1.409       .  A
C729       Br737   1.932       .  S
C730       Br741   1.933       .  S
C731        C732   1.413       .  A
C731        C736   1.412       .  A
C732        C733   1.412       .  A
C732       Br743   1.928       .  S
C733        C734   1.410       .  A
C733       Br739   1.929       .  S
C734        C735   1.409       .  A
C735        C736   1.410       .  A
C735       Br744   1.929       .  S
C736       Br740   1.929       .  S
C745        C746   1.412       .  A
C745        C750   1.415       .  A
C746        C747   1.409       .  A
C746       Br758   1.928       .  S
C747        C748   1.410       .  A
C747       Br762   1.932       .  S
C748        C751   1.493       .  S
C748        C749   1.410       .  A
C749        C750   1.411       .  A
C749       Br757   1.928       .  S
C750       Br761   1.931       .  S
C751        C752   1.394       .  A
C751        C756   1.401       .  A
C752        C753   1.406       .  A
C752       Br763   1.936       .  S
C753        C754   1.443       .  A
C753       Br759   1.932       .  S
C754        C755   1.456       .  A
C755        C756   1.425       .  A
C755       Br764   1.938       .  S
C756       Br760   1.939       .  S
C765        C766   1.408   1_556  A
C765        C770   1.410       .  A
C766        C767   1.408       .  A
C766       Br778   1.928   1_554  S
C767        C768   1.410       .  A
C767       Br782   1.929       .  S
C768        C771   1.486       .  S
C768        C769   1.410       .  A
C769        C770   1.408   1_554  A
C769       Br777   1.929       .  S
C770       Br781   1.929       .  S
C771        C772   1.412       .  A
C771        C776   1.406       .  A
C772        C773   1.413       .  A
C772       Br783   1.928   1_554  S
C773        C774   1.411       .  A
C773       Br779   1.928       .  S
C774        C775   1.413       .  A
C775        C776   1.403       .  A
C775       Br784   1.931       .  S
C776       Br780   1.932       .  S
C785        C786   1.409       .  A
C785        C790   1.408       .  A
C786        C787   1.412   1_556  A
C786       Br798   1.927       .  S
C787        C788   1.412       .  A
C787       Br802   1.929       .  S
C788        C791   1.499       .  S
C788        C789   1.413   1_554  A
C789        C790   1.411       .  A
C789       Br797   1.924       .  S
C790       Br801   1.929       .  S
C791        C792   1.399       .  A
C791        C796   1.396       .  A
C792        C793   1.420       .  A
C792       Br803   1.939       .  S
C793        C794   1.458       .  A
C793       Br799   1.940       .  S
C794        C795   1.460       .  A
C795        C796   1.417       .  A
C795       Br804   1.943   1_654  S
C796       Br800   1.942   1_554  S
C805        C806   1.409       .  A
C805        C810   1.409   1_455  A
C806        C807   1.406   1_455  A
C806       Br818   1.930       .  S
C807        C808   1.409       .  A
C807       Br822   1.930       .  S
C808        C811   1.486       .  S
C808        C809   1.410       .  A
C809        C810   1.410       .  A
C809       Br817   1.929       .  S
C810       Br821   1.928       .  S
C811        C812   1.409       .  A
C811        C816   1.411       .  A
C812        C813   1.407       .  A
C812       Br823   1.930       .  S
C813        C814   1.412       .  A
C813       Br819   1.932       .  S
C814        C815   1.407       .  A
C815        C816   1.408       .  A
C815       Br824   1.929       .  S
C816       Br820   1.928       .  S
C825        C826   1.447   1_655  A
C825        C830   1.452       .  A
C826        C827   1.416       .  A
C826       Br838   1.917       .  S
C827        C828   1.396       .  A
C827       Br842   1.938       .  S
C828        C831   1.494       .  S
C828        C829   1.396   1_455  A
C829        C830   1.416       .  A
C829       Br837   1.942       .  S
C830       Br841   1.917       .  S
C831        C832   1.407       .  A
C831        C836   1.410       .  A
C832        C833   1.411       .  A
C832       Br843   1.930   1_455  S
C833        C834   1.418       .  A
C833       Br839   1.933       .  S
C834        C835   1.415       .  A
C835        C836   1.410       .  A
C835       Br844   1.932       .  S
C836       Br840   1.931       .  S
C845        C846   1.416       .  A
C845        C850   1.416       .  A
C846        C847   1.410       .  A
C846       Br858   1.932       .  S
C847        C848   1.409       .  A
C847       Br862   1.932       .  S
C848        C851   1.491       .  S
C848        C849   1.408       .  A
C849        C850   1.411       .  A
C849       Br857   1.929       .  S
C850       Br861   1.931       .  S
C851        C852   1.411       .  A
C851        C856   1.410       .  A
C852        C853   1.410       .  A
C852       Br863   1.929       .  S
C853        C854   1.409       .  A
C853       Br859   1.928       .  S
C854        C855   1.408       .  A
C855        C856   1.409       .  A
C855       Br864   1.929       .  S
C856       Br860   1.928       .  S
C865        C866   1.413       .  A
C865        C870   1.415       .  A
C866        C867   1.414       .  A
C866       Br878   1.927       .  S
C867        C868   1.409       .  A
C867       Br882   1.928       .  S
C868        C871   1.492       .  S
C868        C869   1.409       .  A
C869        C870   1.410       .  A
C869       Br877   1.934       .  S
C870       Br881   1.931       .  S
C871        C872   1.410       .  A
C871        C876   1.408       .  A
C872        C873   1.410       .  A
C872       Br883   1.929       .  S
C873        C874   1.413       .  A
C873       Br879   1.931       .  S
C874        C875   1.414       .  A
C875        C876   1.409       .  A
C875       Br884   1.932       .  S
C876       Br880   1.928       .  S
C885        C886   1.418       .  A
C885        C890   1.414       .  A
C886        C887   1.403       .  A
C886       Br898   1.934       .  S
C887        C888   1.406       .  A
C887       Br902   1.935       .  S
C888        C891   1.482       .  S
C888        C889   1.408       .  A
C889        C890   1.411       .  A
C889       Br897   1.928       .  S
C890       Br901   1.927       .  S
C891        C892   1.407       .  A
C891        C896   1.407       .  A
C892        C893   1.408       .  A
C892       Br903   1.930       .  S
C893        C894   1.416       .  A
C893       Br899   1.932       .  S
C894        C895   1.415       .  A
C895        C896   1.405       .  A
C895       Br904   1.934       .  S
C896       Br900   1.931       .  S
C905        C906   1.414       .  A
C905        C910   1.412       .  A
C906        C907   1.408       .  A
C906       Br918   1.932       .  S
C907        C908   1.410       .  A
C907       Br922   1.932       .  S
C908        C911   1.488       .  S
C908        C909   1.408       .  A
C909        C910   1.408       .  A
C909       Br917   1.927       .  S
C910       Br921   1.931       .  S
C911        C912   1.409       .  A
C911        C916   1.409       .  A
C912        C913   1.410       .  A
C912       Br923   1.928       .  S
C913        C914   1.412       .  A
C913       Br919   1.929       .  S
C914        C915   1.415       .  A
C915        C916   1.408       .  A
C915       Br924   1.931       .  S
C916       Br920   1.933       .  S
C925        C926   1.412       .  A
C925        C930   1.416       .  A
C926        C927   1.411       .  A
C926       Br938   1.927       .  S
C927        C928   1.409       .  A
C927       Br942   1.928       .  S
C928        C931   1.485       .  S
C928        C929   1.407       .  A
C929        C930   1.405       .  A
C929       Br937   1.932       .  S
C930       Br941   1.936       .  S
C931        C932   1.407       .  A
C931        C936   1.409       .  A
C932        C933   1.406       .  A
C932       Br943   1.930       .  S
C933        C934   1.414       .  A
C933       Br939   1.933       .  S
C934        C935   1.413       .  A
C935        C936   1.409       .  A
C935       Br944   1.931       .  S
C936       Br940   1.930       .  S
C945        C946   1.417       .  A
C945        C950   1.414       .  A
C946        C947   1.407       .  A
C946       Br958   1.934       .  S
C947        C948   1.407       .  A
C947       Br962   1.932       .  S
C948        C951   1.490       .  S
C948        C949   1.411       .  A
C949        C950   1.411       .  A
C949       Br957   1.929       .  S
C950       Br961   1.931       .  S
C951        C952   1.408       .  A
C951        C956   1.412       .  A
C952        C953   1.408       .  A
C952       Br963   1.931       .  S
C953        C954   1.415       .  A
C953       Br959   1.932       .  S
C954        C955   1.411       .  A
C955        C956   1.412       .  A
C955       Br964   1.928       .  S
C956       Br960   1.930       .  S
C965        C966   1.409       .  A
C965        C970   1.405       .  A
C966        C967   1.413       .  A
C966       Br978   1.928       .  S
C967        C968   1.414       .  A
C967       Br982   1.929       .  S
C968        C971   1.496       .  S
C968        C969   1.411       .  A
C969        C970   1.404       .  A
C969       Br977   1.921       .  S
C970       Br981   1.931       .  S
C971        C972   1.394       .  A
C971        C976   1.395       .  A
C972        C973   1.416       .  A
C972       Br983   1.944       .  S
C973        C974   1.463       .  A
C973       Br979   1.942       .  S
C974        C975   1.461       .  A
C975        C976   1.421       .  A
C975       Br984   1.937       .  S
C976       Br980   1.942       .  S
C985        C986   1.413       .  A
C985        C990   1.410       .  A
C986        C987   1.408       .  A
C986       Br998   1.932   1_455  S
C987        C988   1.408       .  A
C987      Br1002   1.930       .  S
C988        C991   1.484       .  S
C988        C989   1.409       .  A
C989        C990   1.406       .  A
C989       Br997   1.930       .  S
C990      Br1001   1.929       .  S
C991        C992   1.407       .  A
C991        C996   1.411       .  A
C992        C993   1.405       .  A
C992      Br1003   1.930       .  S
C993        C994   1.412       .  A
C993       Br999   1.932       .  S
C994        C995   1.409       .  A
C995        C996   1.410       .  A
C995      Br1004   1.929       .  S
C996      Br1000   1.929       .  S
C1005      C1006   1.421       .  A
C1005      C1010   1.422       .  A
C1006      C1007   1.411       .  A
C1006     Br1018   1.934       .  S
C1007      C1008   1.407       .  A
C1007     Br1022   1.930       .  S
C1008      C1011   1.491       .  S
C1008      C1009   1.406       .  A
C1009      C1010   1.410       .  A
C1009     Br1017   1.933   1_455  S
C1010     Br1021   1.933   1_455  S
C1011      C1012   1.396       .  A
C1011      C1016   1.398       .  A
C1012      C1013   1.413       .  A
C1012     Br1023   1.938   1_455  S
C1013      C1014   1.449       .  A
C1013     Br1019   1.926       .  S
C1014      C1015   1.449       .  A
C1015      C1016   1.417       .  A
C1015     Br1024   1.917       .  S
C1016     Br1020   1.941       .  S
C1025      C1026   1.409       .  A
C1025      C1030   1.412       .  A
C1026      C1027   1.413       .  A
C1026     Br1038   1.929       .  S
C1027      C1028   1.413       .  A
C1027     Br1042   1.927       .  S
C1028      C1031   1.494       .  S
C1028      C1029   1.409       .  A
C1029      C1030   1.408       .  A
C1029     Br1037   1.932       .  S
C1030     Br1041   1.930       .  S
C1031      C1032   1.412       .  A
C1031      C1036   1.411       .  A
C1032      C1033   1.412       .  A
C1032     Br1043   1.929       .  S
C1033      C1034   1.411       .  A
C1033     Br1039   1.929       .  S
C1034      C1035   1.412       .  A
C1035      C1036   1.411       .  A
C1035     Br1044   1.930   1_565  S
C1036     Br1040   1.930       .  S
C1045      C1046   1.460       .  A
C1045      C1050   1.442       .  A
C1046      C1047   1.427       .  A
C1046     Br1058   1.937   1_565  S
C1047      C1048   1.403       .  A
C1047     Br1062   1.936   1_565  S
C1048      C1051   1.498       .  S
C1048      C1049   1.393       .  A
C1049      C1050   1.404       .  A
C1049     Br1057   1.933       .  S
C1050     Br1061   1.928       .  S
C1051      C1052   1.411       .  A
C1051      C1056   1.412       .  A
C1052      C1053   1.412       .  A
C1052     Br1063   1.926       .  S
C1053      C1054   1.412   1_565  A
C1053     Br1059   1.930       .  S
C1054      C1055   1.413       .  A
C1055      C1056   1.412   1_545  A
C1055     Br1064   1.930       .  S
C1056     Br1060   1.930       .  S
C1065      C1066   1.417       .  A
C1065      C1070   1.418       .  A
C1066      C1067   1.410       .  A
C1066     Br1078   1.932       .  S
C1067      C1068   1.407       .  A
C1067     Br1082   1.930       .  S
C1068      C1071   1.489       .  S
C1068      C1069   1.408       .  A
C1069      C1070   1.410       .  A
C1069     Br1077   1.933       .  S
C1070     Br1081   1.933       .  S
C1071      C1072   1.408       .  A
C1071      C1076   1.409       .  A
C1072      C1073   1.408       .  A
C1072     Br1083   1.930       .  S
C1073      C1074   1.414       .  A
C1073     Br1079   1.932       .  S
C1074      C1075   1.414       .  A
C1075      C1076   1.410       .  A
C1075     Br1084   1.930       .  S
C1076     Br1080   1.930       .  S
C1085      C1086   1.418       .  A
C1085      C1090   1.417       .  A
C1086      C1087   1.411       .  A
C1086     Br1098   1.932       .  S
C1087      C1088   1.409       .  A
C1087     Br1102   1.931       .  S
C1088      C1091   1.495       .  S
C1088      C1089   1.409       .  A
C1089      C1090   1.413       .  A
C1089     Br1097   1.930       .  S
C1090     Br1101   1.930       .  S
C1091      C1092   1.410       .  A
C1091      C1096   1.412       .  A
C1092      C1093   1.411       .  A
C1092     Br1103   1.928       .  S
C1093      C1094   1.411       .  A
C1093     Br1099   1.929       .  S
C1094      C1095   1.412       .  A
C1095      C1096   1.412       .  A
C1095     Br1104   1.931       .  S
C1096     Br1100   1.929       .  S
C1105      C1106   1.413       .  A
C1105      C1110   1.415       .  A
C1106      C1107   1.404       .  A
C1106     Br1118   1.931       .  S
C1107      C1108   1.406       .  A
C1107     Br1122   1.931       .  S
C1108      C1111   1.480       .  S
C1108      C1109   1.407       .  A
C1109      C1110   1.408       .  A
C1109     Br1117   1.930       .  S
C1110     Br1121   1.930       .  S
C1111      C1112   1.406       .  A
C1111      C1116   1.408       .  A
C1112      C1113   1.407       .  A
C1112     Br1123   1.927       .  S
C1113      C1114   1.412       .  A
C1113     Br1119   1.929       .  S
C1114      C1115   1.415       .  A
C1115      C1116   1.405       .  A
C1115     Br1124   1.934       .  S
C1116     Br1120   1.933       .  S
C1125      C1126   1.415       .  A
C1125      C1130   1.410       .  A
C1126      C1127   1.406       .  A
C1126     Br1138   1.932       .  S
C1127      C1128   1.407       .  A
C1127     Br1142   1.932       .  S
C1128      C1131   1.480       .  S
C1128      C1129   1.407       .  A
C1129      C1130   1.405       .  A
C1129     Br1137   1.928       .  S
C1130     Br1141   1.929       .  S
C1131      C1132   1.405       .  A
C1131      C1136   1.409       .  A
C1132      C1133   1.407       .  A
C1132     Br1143   1.928       .  S
C1133      C1134   1.413       .  A
C1133     Br1139   1.931       .  S
C1134      C1135   1.414       .  A
C1135      C1136   1.406       .  A
C1135     Br1144   1.932       .  S
C1136     Br1140   1.934       .  S
C1145      C1146   1.408       .  A
C1145      C1150   1.412       .  A
C1146      C1147   1.410       .  A
C1146     Br1158   1.928       .  S
C1147      C1148   1.410       .  A
C1147     Br1162   1.926       .  S
C1148      C1151   1.483       .  S
C1148      C1149   1.408       .  A
C1149      C1150   1.403       .  A
C1149     Br1157   1.932       .  S
C1150     Br1161   1.934       .  S
C1151      C1152   1.410       .  A
C1151      C1156   1.408       .  A
C1152      C1153   1.406       .  A
C1152     Br1163   1.930       .  S
C1153      C1154   1.410       .  A
C1153     Br1159   1.931       .  S
C1154      C1155   1.412       .  A
C1155      C1156   1.408       .  A
C1155     Br1164   1.931       .  S
C1156     Br1160   1.929       .  S
C1165      C1166   1.412       .  A
C1165      C1170   1.414       .  A
C1166      C1167   1.409       .  A
C1166     Br1178   1.928       .  S
C1167      C1168   1.410       .  A
C1167     Br1182   1.930       .  S
C1168      C1171   1.489       .  S
C1168      C1169   1.408       .  A
C1169      C1170   1.409       .  A
C1169     Br1177   1.928       .  S
C1170     Br1181   1.933       .  S
C1171      C1172   1.410       .  A
C1171      C1176   1.411       .  A
C1172      C1173   1.409       .  A
C1172     Br1183   1.927       .  S
C1173      C1174   1.408       .  A
C1173     Br1179   1.928       .  S
C1174      C1175   1.412       .  A
C1175      C1176   1.410       .  A
C1175     Br1184   1.930       .  S
C1176     Br1180   1.932       .  S
C1185      C1186   1.446       .  A
C1185      C1190   1.460       .  A
C1186      C1187   1.404       .  A
C1186     Br1198   1.940       .  S
C1187      C1188   1.394       .  A
C1187     Br1202   1.934       .  S
C1188      C1191   1.493       .  S
C1188      C1189   1.400       .  A
C1189      C1190   1.422       .  A
C1189     Br1197   1.938       .  S
C1190     Br1201   1.944       .  S
C1191      C1192   1.409       .  A
C1191      C1196   1.411       .  A
C1192      C1193   1.412       .  A
C1192     Br1203   1.929       .  S
C1193      C1194   1.413       .  A
C1193     Br1199   1.927       .  S
C1194      C1195   1.410       .  A
C1195      C1196   1.410       .  A
C1195     Br1204   1.926       .  S
C1196     Br1200   1.931       .  S
C1205      C1206   1.409       .  A
C1205      C1210   1.410       .  A
C1206      C1207   1.411       .  A
C1206     Br1218   1.927       .  S
C1207      C1208   1.412       .  A
C1207     Br1222   1.930       .  S
C1208      C1211   1.493       .  S
C1208      C1209   1.412       .  A
C1209      C1210   1.410       .  A
C1209     Br1217   1.930       .  S
C1210     Br1221   1.927       .  S
C1211      C1212   1.412       .  A
C1211      C1216   1.409       .  A
C1212      C1213   1.412       .  A
C1212     Br1223   1.929       .  S
C1213      C1214   1.412       .  A
C1213     Br1219   1.930       .  S
C1214      C1215   1.416       .  A
C1215      C1216   1.408       .  A
C1215     Br1224   1.935       .  S
C1216     Br1220   1.931       .  S
C1225      C1226   1.447       .  A
C1225      C1230   1.442       .  A
C1226      C1227   1.419       .  A
C1226     Br1238   1.921       .  S
C1227      C1228   1.402       .  A
C1227     Br1242   1.938       .  S
C1228      C1231   1.504       .  S
C1228      C1229   1.403       .  A
C1229      C1230   1.416       .  A
C1229     Br1237   1.935       .  S
C1230     Br1241   1.917       .  S
C1231      C1232   1.411   1_545  A
C1231      C1236   1.413       .  A
C1232      C1233   1.411       .  A
C1232     Br1243   1.931       .  S
C1233      C1234   1.416   1_565  A
C1233     Br1239   1.932       .  S
C1234      C1235   1.417       .  A
C1235      C1236   1.415       .  A
C1235     Br1244   1.932       .  S
C1236     Br1240   1.929       .  S
C1245      C1246   1.411       .  A
C1245      C1250   1.413   1_556  A
C1246      C1247   1.407       .  A
C1246     Br1258   1.931       .  S
C1247      C1248   1.410       .  A
C1247     Br1262   1.930       .  S
C1248      C1251   1.488       .  S
C1248      C1249   1.409       .  A
C1249      C1250   1.410   1_556  A
C1249     Br1257   1.928       .  S
C1250     Br1261   1.931       .  S
C1251      C1252   1.409       .  A
C1251      C1256   1.408       .  A
C1252      C1253   1.409       .  A
C1252     Br1263   1.929       .  S
C1253      C1254   1.410       .  A
C1253     Br1259   1.928       .  S
C1254      C1255   1.415       .  A
C1255      C1256   1.409       .  A
C1255     Br1264   1.932       .  S
C1256     Br1260   1.930       .  S
C1265      C1266   1.408       .  A
C1265      C1270   1.408   1_554  A
C1266      C1267   1.407       .  A
C1266     Br1278   1.927       .  S
C1267      C1268   1.410   1_554  A
C1267     Br1282   1.931       .  S
C1268      C1271   1.488       .  S
C1268      C1269   1.411       .  A
C1269      C1270   1.407       .  A
C1269     Br1277   1.927       .  S
C1270     Br1281   1.931       .  S
C1271      C1272   1.394       .  A
C1271      C1276   1.396       .  A
C1272      C1273   1.413       .  A
C1272     Br1283   1.941   1_556  S
C1273      C1274   1.458       .  A
C1273     Br1279   1.948   1_556  S
C1274      C1275   1.458       .  A
C1275      C1276   1.415       .  A
C1275     Br1284   1.941       .  S
C1276     Br1280   1.942       .  S
C1285      C1286   1.408       .  A
C1285      C1290   1.410       .  A
C1286      C1287   1.406       .  A
C1286     Br1298   1.930       .  S
C1287      C1288   1.410       .  A
C1287     Br1302   1.929       .  S
C1288      C1291   1.485       .  S
C1288      C1289   1.409       .  A
C1289      C1290   1.408       .  A
C1289     Br1297   1.929       .  S
C1290     Br1301   1.930       .  S
C1291      C1292   1.409       .  A
C1291      C1296   1.409       .  A
C1292      C1293   1.405       .  A
C1292     Br1303   1.933       .  S
C1293      C1294   1.412       .  A
C1293     Br1299   1.932       .  S
C1294      C1295   1.413       .  A
C1295      C1296   1.411       .  A
C1295     Br1304   1.930       .  S
C1296     Br1300   1.928       .  S
C1305      C1306   1.415       .  A
C1305      C1310   1.419       .  A
C1306      C1307   1.413       .  A
C1306     Br1318   1.929       .  S
C1307      C1308   1.410       .  A
C1307     Br1322   1.931       .  S
C1308      C1311   1.500       .  S
C1308      C1309   1.410       .  A
C1309      C1310   1.417       .  A
C1309     Br1317   1.930       .  S
C1310     Br1321   1.930       .  S
C1311      C1312   1.412       .  A
C1311      C1316   1.411       .  A
C1312      C1313   1.413       .  A
C1312     Br1323   1.929       .  S
C1313      C1314   1.412       .  A
C1313     Br1319   1.925       .  S
C1314      C1315   1.411       .  A
C1315      C1316   1.412       .  A
C1315     Br1324   1.931       .  S
C1316     Br1320   1.926       .  S
C1325      C1326   1.412       .  A
C1325      C1330   1.410       .  A
C1326      C1327   1.414       .  A
C1326     Br1338   1.930       .  S
C1327      C1328   1.412       .  A
C1327     Br1342   1.927       .  S
C1328      C1331   1.493       .  S
C1328      C1329   1.410       .  A
C1329      C1330   1.407       .  A
C1329     Br1337   1.931       .  S
C1330     Br1341   1.931       .  S
C1331      C1332   1.409       .  A
C1331      C1336   1.408       .  A
C1332      C1333   1.414       .  A
C1332     Br1343   1.928       .  S
C1333      C1334   1.415       .  A
C1333     Br1339   1.928       .  S
C1334      C1335   1.418       .  A
C1335      C1336   1.409       .  A
C1335     Br1344   1.934       .  S
C1336     Br1340   1.933       .  S
C1345      C1346   1.411       .  A
C1345      C1350   1.411       .  A
C1346      C1347   1.407       .  A
C1346     Br1358   1.932       .  S
C1347      C1348   1.409       .  A
C1347     Br1362   1.930       .  S
C1348      C1351   1.485       .  S
C1348      C1349   1.410       .  A
C1349      C1350   1.408       .  A
C1349     Br1357   1.929       .  S
C1350     Br1361   1.931       .  S
C1351      C1352   1.409       .  A
C1351      C1356   1.406       .  A
C1352      C1353   1.413       .  A
C1352     Br1363   1.929       .  S
C1353      C1354   1.415       .  A
C1353     Br1359   1.929       .  S
C1354      C1355   1.417       .  A
C1355      C1356   1.404       .  A
C1355     Br1364   1.933       .  S
C1356     Br1360   1.935       .  S
C1365      C1366   1.414       .  A
C1365      C1370   1.416       .  A
C1366      C1367   1.411       .  A
C1366     Br1378   1.931       .  S
C1367      C1368   1.409       .  A
C1367     Br1382   1.928       .  S
C1368      C1371   1.490       .  S
C1368      C1369   1.408       .  A
C1369      C1370   1.408       .  A
C1369     Br1377   1.931       .  S
C1370     Br1381   1.933       .  S
C1371      C1372   1.409       .  A
C1371      C1376   1.410       .  A
C1372      C1373   1.411       .  A
C1372     Br1383   1.928       .  S
C1373      C1374   1.412       .  A
C1373     Br1379   1.928       .  S
C1374      C1375   1.414       .  A
C1375      C1376   1.410       .  A
C1375     Br1384   1.930       .  S
C1376     Br1380   1.933       .  S
C1385      C1386   1.410       .  A
C1385      C1390   1.412       .  A
C1386      C1387   1.406       .  A
C1386     Br1398   1.933       .  S
C1387      C1388   1.411       .  A
C1387     Br1402   1.931       .  S
C1388      C1391   1.490       .  S
C1388      C1389   1.410       .  A
C1389      C1390   1.412       .  A
C1389     Br1397   1.927       .  S
C1390     Br1401   1.929       .  S
C1391      C1392   1.410       .  A
C1391      C1396   1.408       .  A
C1392      C1393   1.409       .  A
C1392     Br1403   1.930       .  S
C1393      C1394   1.413       .  A
C1393     Br1399   1.930       .  S
C1394      C1395   1.412       .  A
C1395      C1396   1.411       .  A
C1395     Br1404   1.928       .  S
C1396     Br1400   1.927       .  S
C1405      C1406   1.456       .  A
C1405      C1410   1.445       .  A
C1406      C1407   1.422   1_655  A
C1406     Br1418   1.949   1_655  S
C1407      C1408   1.405       .  A
C1407     Br1422   1.935       .  S
C1408      C1411   1.512       .  S
C1408      C1409   1.405   1_455  A
C1409      C1410   1.415       .  A
C1409     Br1417   1.934   1_545  S
C1410     Br1421   1.941       .  S
C1411      C1412   1.403   1_545  A
C1411      C1416   1.406   1_545  A
C1412      C1413   1.418       .  A
C1412     Br1423   1.940   1_465  S
C1413      C1414   1.454       .  A
C1413     Br1419   1.947       .  S
C1414      C1415   1.446       .  A
C1415      C1416   1.423       .  A
C1415     Br1424   1.932       .  S
C1416     Br1420   1.933   1_565  S
C1425      C1426   1.416       .  A
C1425      C1430   1.414       .  A
C1426      C1427   1.406       .  A
C1426     Br1438   1.933       .  S
C1427      C1428   1.406       .  A
C1427     Br1442   1.930       .  S
C1428      C1431   1.484       .  S
C1428      C1429   1.409       .  A
C1429      C1430   1.409       .  A
C1429     Br1437   1.931   1_655  S
C1430     Br1441   1.931       .  S
C1431      C1432   1.408       .  A
C1431      C1436   1.407   1_655  A
C1432      C1433   1.407   1_655  A
C1432     Br1443   1.932       .  S
C1433      C1434   1.414       .  A
C1433     Br1439   1.931   1_455  S
C1434      C1435   1.415       .  A
C1435      C1436   1.408       .  A
C1435     Br1444   1.932       .  S
C1436     Br1440   1.929       .  S
C1445      C1446   1.427       .  A
C1445      C1450   1.446       .  A
C1446      C1447   1.404       .  A
C1446     Br1458   1.926       .  S
C1447      C1448   1.397   1_655  A
C1447     Br1462   1.933       .  S
C1448      C1451   1.495       .  S
C1448      C1449   1.405       .  A
C1449      C1450   1.421   1_455  A
C1449     Br1457   1.933       .  S
C1450     Br1461   1.939   1_655  S
C1451      C1452   1.410       .  A
C1451      C1456   1.414       .  A
C1452      C1453   1.413       .  A
C1452     Br1463   1.927       .  S
C1453      C1454   1.412       .  A
C1453     Br1459   1.930       .  S
C1454      C1455   1.410       .  A
C1455      C1456   1.410       .  A
C1455     Br1464   1.929       .  S
C1456     Br1460   1.933       .  S
C1465      C1466   1.414       .  A
C1465      C1470   1.417       .  A
C1466      C1467   1.411       .  A
C1466     Br1478   1.929       .  S
C1467      C1468   1.409       .  A
C1467     Br1482   1.929       .  S
C1468      C1471   1.492       .  S
C1468      C1469   1.409       .  A
C1469      C1470   1.412       .  A
C1469     Br1477   1.931       .  S
C1470     Br1481   1.931       .  S
C1471      C1472   1.411       .  A
C1471      C1476   1.410       .  A
C1472      C1473   1.412       .  A
C1472     Br1483   1.929       .  S
C1473      C1474   1.410       .  A
C1473     Br1479   1.929       .  S
C1474      C1475   1.408       .  A
C1475      C1476   1.409       .  A
C1475     Br1484   1.928       .  S
C1476     Br1480   1.928       .  S
C1485      C1486   1.418       .  A
C1485      C1490   1.414       .  A
C1486      C1487   1.411       .  A
C1486     Br1498   1.932   1_545  S
C1487      C1488   1.408       .  A
C1487     Br1502   1.931       .  S
C1488      C1491   1.490       .  S
C1488      C1489   1.408       .  A
C1489      C1490   1.409       .  A
C1489     Br1497   1.929       .  S
C1490     Br1501   1.930       .  S
C1491      C1492   1.407       .  A
C1491      C1496   1.408       .  A
C1492      C1493   1.410       .  A
C1492     Br1503   1.930       .  S
C1493      C1494   1.416       .  A
C1493     Br1499   1.931       .  S
C1494      C1495   1.419       .  A
C1495      C1496   1.411       .  A
C1495     Br1504   1.934       .  S
C1496     Br1500   1.931       .  S
C1505      C1506   1.420   1_565  A
C1505      C1510   1.422       .  A
C1506      C1507   1.412       .  A
C1506     Br1518   1.935       .  S
C1507      C1508   1.409       .  A
C1507     Br1522   1.926       .  S
C1508      C1511   1.504       .  S
C1508      C1509   1.411   1_545  A
C1509      C1510   1.416       .  A
C1509     Br1517   1.931       .  S
C1510     Br1521   1.932       .  S
C1511      C1512   1.397       .  A
C1511      C1516   1.402       .  A
C1512      C1513   1.415       .  A
C1512     Br1523   1.941       .  S
C1513      C1514   1.450       .  A
C1513     Br1519   1.933       .  S
C1514      C1515   1.446       .  A
C1515      C1516   1.423       .  A
C1515     Br1524   1.921       .  S
C1516     Br1520   1.934   1_545  S
C1525      C1526   1.411       .  A
C1525      C1530   1.414       .  A
C1526      C1527   1.409       .  A
C1526     Br1538   1.929       .  S
C1527      C1528   1.409       .  A
C1527     Br1542   1.928       .  S
C1528      C1531   1.488       .  S
C1528      C1529   1.408       .  A
C1529      C1530   1.409       .  A
C1529     Br1537   1.931       .  S
C1530     Br1541   1.926       .  S
C1531      C1532   1.409       .  A
C1531      C1536   1.410       .  A
C1532      C1533   1.408       .  A
C1532     Br1543   1.930       .  S
C1533      C1534   1.413       .  A
C1533     Br1539   1.932       .  S
C1534      C1535   1.411       .  A
C1535      C1536   1.410       .  A
C1535     Br1544   1.929       .  S
C1536     Br1540   1.929       .  S
C1545      C1546   1.409       .  A
C1545      C1550   1.406       .  A
C1546      C1547   1.414       .  A
C1546     Br1558   1.928       .  S
C1547      C1548   1.414       .  A
C1547     Br1562   1.928       .  S
C1548      C1551   1.497       .  S
C1548      C1549   1.415       .  A
C1549      C1550   1.406       .  A
C1549     Br1557   1.932       .  S
C1550     Br1561   1.931       .  S
C1551      C1552   1.403       .  A
C1551      C1556   1.400       .  A
C1552      C1553   1.416       .  A
C1552     Br1563   1.936       .  S
C1553      C1554   1.451       .  A
C1553     Br1559   1.946       .  S
C1554      C1555   1.439       .  A
C1555      C1556   1.409       .  A
C1555     Br1564   1.931       .  S
C1556     Br1560   1.936       .  S
C1565      C1566   1.418       .  A
C1565      C1570   1.417       .  A
C1566      C1567   1.410       .  A
C1566     Br1578   1.932       .  S
C1567      C1568   1.408       .  A
C1567     Br1582   1.931       .  S
C1568      C1571   1.486       .  S
C1568      C1569   1.407       .  A
C1569      C1570   1.407       .  A
C1569     Br1577   1.933       .  S
C1570     Br1581   1.933       .  S
C1571      C1572   1.410       .  A
C1571      C1576   1.411       .  A
C1572      C1573   1.404       .  A
C1572     Br1583   1.931       .  S
C1573      C1574   1.407       .  A
C1573     Br1579   1.928       .  S
C1574      C1575   1.408       .  A
C1575      C1576   1.410       .  A
C1575     Br1584   1.929       .  S
C1576     Br1580   1.929       .  S
C1585      C1586   1.414       .  A
C1585      C1590   1.415       .  A
C1586      C1587   1.407       .  A
C1586     Br1598   1.931       .  S
C1587      C1588   1.406       .  A
C1587     Br1602   1.929       .  S
C1588      C1591   1.486       .  S
C1588      C1589   1.409       .  A
C1589      C1590   1.410       .  A
C1589     Br1597   1.931       .  S
C1590     Br1601   1.932       .  S
C1591      C1592   1.408       .  A
C1591      C1596   1.409       .  A
C1592      C1593   1.410       .  A
C1592     Br1603   1.929       .  S
C1593      C1594   1.409       .  A
C1593     Br1599   1.926       .  S
C1594      C1595   1.408       .  A
C1595      C1596   1.408       .  A
C1595     Br1604   1.928       .  S
C1596     Br1600   1.930       .  S
C1605      C1606   1.413       .  A
C1605      C1610   1.414       .  A
C1606      C1607   1.406       .  A
C1606     Br1618   1.932       .  S
C1607      C1608   1.407       .  A
C1607     Br1622   1.930       .  S
C1608      C1611   1.480       .  S
C1608      C1609   1.407       .  A
C1609      C1610   1.407       .  A
C1609     Br1617   1.931       .  S
C1610     Br1621   1.930       .  S
C1611      C1612   1.407       .  A
C1611      C1616   1.408       .  A
C1612      C1613   1.402       .  A
C1612     Br1623   1.934       .  S
C1613      C1614   1.412       .  A
C1613     Br1619   1.932       .  S
C1614      C1615   1.412       .  A
C1615      C1616   1.411       .  A
C1615     Br1624   1.928       .  S
C1616     Br1620   1.928       .  S
C1625      C1626   1.415       .  A
C1625      C1630   1.415       .  A
C1626      C1627   1.405       .  A
C1626     Br1638   1.934       .  S
C1627      C1628   1.407       .  A
C1627     Br1642   1.933       .  S
C1628      C1631   1.481       .  S
C1628      C1629   1.407       .  A
C1629      C1630   1.408       .  A
C1629     Br1637   1.929       .  S
C1630     Br1641   1.932       .  S
C1631      C1632   1.409       .  A
C1631      C1636   1.407       .  A
C1632      C1633   1.407       .  A
C1632     Br1643   1.930       .  S
C1633      C1634   1.409       .  A
C1633     Br1639   1.928       .  S
C1634      C1635   1.412       .  A
C1635      C1636   1.405       .  A
C1635     Br1644   1.932       .  S
C1636     Br1640   1.930       .  S
C1645      C1646   1.410       .  A
C1645      C1650   1.410       .  A
C1646      C1647   1.404       .  A
C1646     Br1658   1.931       .  S
C1647      C1648   1.408       .  A
C1647     Br1662   1.930       .  S
C1648      C1651   1.481       .  S
C1648      C1649   1.409       .  A
C1649      C1650   1.407       .  A
C1649     Br1657   1.929       .  S
C1650     Br1661   1.930       .  S
C1651      C1652   1.407       .  A
C1651      C1656   1.408       .  A
C1652      C1653   1.410       .  A
C1652     Br1663   1.929       .  S
C1653      C1654   1.414       .  A
C1653     Br1659   1.928       .  S
C1654      C1655   1.412       .  A
C1655      C1656   1.402       .  A
C1655     Br1664   1.935       .  S
C1656     Br1660   1.931       .  S
C1665      C1666   1.416       .  A
C1665      C1670   1.415       .  A
C1666      C1667   1.405       .  A
C1666     Br1678   1.933       .  S
C1667      C1668   1.407       .  A
C1667     Br1682   1.934       .  S
C1668      C1671   1.486       .  S
C1668      C1669   1.409       .  A
C1669      C1670   1.412       .  A
C1669     Br1677   1.927       .  S
C1670     Br1681   1.930       .  S
C1671      C1672   1.408       .  A
C1671      C1676   1.408       .  A
C1672      C1673   1.407       .  A
C1672     Br1683   1.929       .  S
C1673      C1674   1.411       .  A
C1673     Br1679   1.930       .  S
C1674      C1675   1.415       .  A
C1675      C1676   1.409       .  A
C1675     Br1684   1.933       .  S
C1676     Br1680   1.929       .  S
C1685      C1686   1.451       .  A
C1685      C1690   1.454       .  A
C1686      C1687   1.418       .  A
C1686     Br1698   1.930       .  S
C1687      C1688   1.401       .  A
C1687     Br1702   1.941   1_556  S
C1688      C1691   1.512   1_556  S
C1688      C1689   1.405       .  A
C1689      C1690   1.425       .  A
C1689     Br1697   1.940   1_545  S
C1690     Br1701   1.942   1_545  S
C1691      C1692   1.404   1_545  A
C1691      C1696   1.402   1_545  A
C1692      C1693   1.423       .  A
C1692     Br1703   1.941   1_564  S
C1693      C1694   1.448       .  A
C1693     Br1699   1.924       .  S
C1694      C1695   1.456       .  A
C1695      C1696   1.421       .  A
C1695     Br1704   1.948       .  S
C1696     Br1700   1.938   1_565  S
C1705      C1706   1.411       .  A
C1705      C1710   1.414       .  A
C1706      C1707   1.410       .  A
C1706     Br1718   1.929       .  S
C1707      C1708   1.410       .  A
C1707     Br1722   1.929       .  S
C1708      C1711   1.490       .  S
C1708      C1709   1.408       .  A
C1709      C1710   1.410       .  A
C1709     Br1717   1.929       .  S
C1710     Br1721   1.931   1_554  S
C1711      C1712   1.408       .  A
C1711      C1716   1.410       .  A
C1712      C1713   1.408       .  A
C1712     Br1723   1.931       .  S
C1713      C1714   1.414       .  A
C1713     Br1719   1.934       .  S
C1714      C1715   1.412       .  A
C1715      C1716   1.412       .  A
C1715     Br1724   1.929       .  S
C1716     Br1720   1.928       .  S
C1725      C1726   1.460       .  A
C1725      C1730   1.463       .  A
C1726      C1727   1.415       .  A
C1726     Br1738   1.940       .  S
C1727      C1728   1.394       .  A
C1727     Br1742   1.943       .  S
C1728      C1731   1.496       .  S
C1728      C1729   1.395       .  A
C1729      C1730   1.423       .  A
C1729     Br1737   1.946   1_554  S
C1730     Br1741   1.934       .  S
C1731      C1732   1.412       .  A
C1731      C1736   1.412       .  A
C1732      C1733   1.407       .  A
C1732     Br1743   1.923       .  S
C1733      C1734   1.407       .  A
C1733     Br1739   1.930   1_554  S
C1734      C1735   1.410       .  A
C1735      C1736   1.412       .  A
C1735     Br1744   1.927       .  S
C1736     Br1740   1.930       .  S
C1745      C1746   1.408       .  A
C1745      C1750   1.408       .  A
C1746      C1747   1.410       .  A
C1746     Br1758   1.928       .  S
C1747      C1748   1.411       .  A
C1747     Br1762   1.928       .  S
C1748      C1751   1.489       .  S
C1748      C1749   1.410       .  A
C1749      C1750   1.407       .  A
C1749     Br1757   1.928       .  S
C1750     Br1761   1.931       .  S
C1751      C1752   1.409       .  A
C1751      C1756   1.410       .  A
C1752      C1753   1.410       .  A
C1752     Br1763   1.929       .  S
C1753      C1754   1.411       .  A
C1753     Br1759   1.928   1_565  S
C1754      C1755   1.410       .  A
C1755      C1756   1.409       .  A
C1755     Br1764   1.929       .  S
C1756     Br1760   1.929       .  S
C1765      C1766   1.451       .  A
C1765      C1770   1.454       .  A
C1766      C1767   1.409       .  A
C1766     Br1778   1.938       .  S
C1767      C1768   1.395       .  A
C1767     Br1782   1.938       .  S
C1768      C1771   1.500       .  S
C1768      C1769   1.402   1_565  A
C1769      C1770   1.428   1_545  A
C1769     Br1777   1.937       .  S
C1770     Br1781   1.929   1_565  S
C1771      C1772   1.411       .  A
C1771      C1776   1.412   1_565  A
C1772      C1773   1.410       .  A
C1772     Br1783   1.924       .  S
C1773      C1774   1.413   1_565  A
C1773     Br1779   1.933       .  S
C1774      C1775   1.413       .  A
C1775      C1776   1.413       .  A
C1775     Br1784   1.929       .  S
C1776     Br1780   1.931       .  S
C1785      C1786   1.408       .  A
C1785      C1790   1.410       .  A
C1786      C1787   1.411       .  A
C1786     Br1798   1.928       .  S
C1787      C1788   1.412       .  A
C1787     Br1802   1.926       .  S
C1788      C1791   1.490       .  S
C1788      C1789   1.409       .  A
C1789      C1790   1.407       .  A
C1789     Br1797   1.932       .  S
C1790     Br1801   1.925       .  S
C1791      C1792   1.409       .  A
C1791      C1796   1.408       .  A
C1792      C1793   1.412       .  A
C1792     Br1803   1.931       .  S
C1793      C1794   1.416       .  A
C1793     Br1799   1.930       .  S
C1794      C1795   1.415       .  A
C1795      C1796   1.409       .  A
C1795     Br1804   1.932       .  S
C1796     Br1800   1.931       .  S
C1805      C1806   1.416       .  A
C1805      C1810   1.412       .  A
C1806      C1807   1.409       .  A
C1806     Br1818   1.933       .  S
C1807      C1808   1.408       .  A
C1807     Br1822   1.931       .  S
C1808      C1811   1.487       .  S
C1808      C1809   1.409       .  A
C1809      C1810   1.409       .  A
C1809     Br1817   1.929       .  S
C1810     Br1821   1.930       .  S
C1811      C1812   1.410       .  A
C1811      C1816   1.408       .  A
C1812      C1813   1.410       .  A
C1812     Br1823   1.929       .  S
C1813      C1814   1.410       .  A
C1813     Br1819   1.927       .  S
C1814      C1815   1.413       .  A
C1815      C1816   1.408       .  A
C1815     Br1824   1.933       .  S
C1816     Br1820   1.931       .  S
C1825      C1826   1.453       .  A
C1825      C1830   1.460       .  A
C1826      C1827   1.417       .  A
C1826     Br1838   1.927       .  S
C1827      C1828   1.396       .  A
C1827     Br1842   1.939       .  S
C1828      C1831   1.504       .  S
C1828      C1829   1.397       .  A
C1829      C1830   1.424       .  A
C1829     Br1837   1.949       .  S
C1830     Br1841   1.915       .  S
C1831      C1832   1.411       .  A
C1831      C1836   1.408       .  A
C1832      C1833   1.416       .  A
C1832     Br1843   1.931       .  S
C1833      C1834   1.420       .  A
C1833     Br1839   1.932       .  S
C1834      C1835   1.424       .  A
C1835      C1836   1.414       .  A
C1835     Br1844   1.934       .  S
C1836     Br1840   1.933       .  S
C1845      C1846   1.413       .  A
C1845      C1850   1.410       .  A
C1846      C1847   1.411       .  A
C1846     Br1858   1.929       .  S
C1847      C1848   1.410       .  A
C1847     Br1862   1.929       .  S
C1848      C1851   1.498       .  S
C1848      C1849   1.413       .  A
C1849      C1850   1.413       .  A
C1849     Br1857   1.927       .  S
C1850     Br1861   1.930       .  S
C1851      C1852   1.411       .  A
C1851      C1856   1.409       .  A
C1852      C1853   1.414       .  A
C1852     Br1863   1.932       .  S
C1853      C1854   1.418       .  A
C1853     Br1859   1.932       .  S
C1854      C1855   1.415       .  A
C1855      C1856   1.414       .  A
C1855     Br1864   1.929       .  S
C1856     Br1860   1.928       .  S
C1865      C1866   1.416       .  A
C1865      C1870   1.413       .  A
C1866      C1867   1.407       .  A
C1866     Br1878   1.933       .  S
C1867      C1868   1.408       .  A
C1867     Br1882   1.933       .  S
C1868      C1871   1.481       .  S
C1868      C1869   1.406       .  A
C1869      C1870   1.406       .  A
C1869     Br1877   1.929       .  S
C1870     Br1881   1.930       .  S
C1871      C1872   1.407       .  A
C1871      C1876   1.406       .  A
C1872      C1873   1.410       .  A
C1872     Br1883   1.931       .  S
C1873      C1874   1.416       .  A
C1873     Br1879   1.930       .  S
C1874      C1875   1.414       .  A
C1875      C1876   1.403       .  A
C1875     Br1884   1.933       .  S
C1876     Br1880   1.931       .  S
C1885      C1886   1.412       .  A
C1885      C1890   1.413       .  A
C1886      C1887   1.405       .  A
C1886     Br1898   1.930       .  S
C1887      C1888   1.406       .  A
C1887     Br1902   1.927       .  S
C1888      C1891   1.480       .  S
C1888      C1889   1.408       .  A
C1889      C1890   1.406       .  A
C1889     Br1897   1.932       .  S
C1890     Br1901   1.931       .  S
C1891      C1892   1.409       .  A
C1891      C1896   1.405       .  A
C1892      C1893   1.405       .  A
C1892     Br1903   1.933       .  S
C1893      C1894   1.414       .  A
C1893     Br1899   1.935       .  S
C1894      C1895   1.413       .  A
C1895      C1896   1.408       .  A
C1895     Br1904   1.928       .  S
C1896     Br1900   1.928       .  S
C1905      C1906   1.411       .  A
C1905      C1910   1.413       .  A
C1906      C1907   1.407       .  A
C1906     Br1918   1.928       .  S
C1907      C1908   1.410       .  A
C1907     Br1922   1.932       .  S
C1908      C1911   1.498       .  S
C1908      C1909   1.415       .  A
C1909      C1910   1.416       .  A
C1909     Br1917   1.928       .  S
C1910     Br1921   1.930       .  S
C1911      C1912   1.412       .  A
C1911      C1916   1.412       .  A
C1912      C1913   1.414       .  A
C1912     Br1923   1.930       .  S
C1913      C1914   1.414       .  A
C1913     Br1919   1.929       .  S
C1914      C1915   1.413       .  A
C1915      C1916   1.411       .  A
C1915     Br1924   1.931       .  S
C1916     Br1920   1.931       .  S
C1925      C1926   1.410       .  A
C1925      C1930   1.413       .  A
C1926      C1927   1.410       .  A
C1926     Br1938   1.927       .  S
C1927      C1928   1.409       .  A
C1927     Br1942   1.927       .  S
C1928      C1931   1.488       .  S
C1928      C1929   1.410       .  A
C1929      C1930   1.408       .  A
C1929     Br1937   1.934       .  S
C1930     Br1941   1.930       .  S
C1931      C1932   1.410       .  A
C1931      C1936   1.409       .  A
C1932      C1933   1.405       .  A
C1932     Br1943   1.928       .  S
C1933      C1934   1.410       .  A
C1933     Br1939   1.934       .  S
C1934      C1935   1.414       .  A
C1935      C1936   1.409       .  A
C1935     Br1944   1.932       .  S
C1936     Br1940   1.929       .  S
C1945      C1946   1.419       .  A
C1945      C1950   1.421       .  A
C1946      C1947   1.406       .  A
C1946     Br1958   1.935       .  S
C1947      C1948   1.406       .  A
C1947     Br1962   1.933       .  S
C1948      C1951   1.487       .  S
C1948      C1949   1.407       .  A
C1949      C1950   1.413       .  A
C1949     Br1957   1.930       .  S
C1950     Br1961   1.932       .  S
C1951      C1952   1.409       .  A
C1951      C1956   1.408       .  A
C1952      C1953   1.411       .  A
C1952     Br1963   1.928       .  S
C1953      C1954   1.413       .  A
C1953     Br1959   1.929       .  S
C1954      C1955   1.415       .  A
C1955      C1956   1.406       .  A
C1955     Br1964   1.932       .  S
C1956     Br1960   1.933       .  S
C1965      C1966   1.454   1_655  A
C1965      C1970   1.446       .  A
C1966      C1967   1.419       .  A
C1966     Br1978   1.943       .  S
C1967      C1968   1.401       .  A
C1967     Br1982   1.940       .  S
C1968      C1971   1.506   1_554  S
C1968      C1969   1.403   1_454  A
C1969      C1970   1.419   1_556  A
C1969     Br1977   1.939       .  S
C1970     Br1981   1.928       .  S
C1971      C1972   1.398       .  A
C1971      C1976   1.400       .  A
C1972      C1973   1.418       .  A
C1972     Br1983   1.942       .  S
C1973      C1974   1.449       .  A
C1973     Br1979   1.925       .  S
C1974      C1975   1.466       .  A
C1975      C1976   1.422       .  A
C1975     Br1984   1.953       .  S
C1976     Br1980   1.945       .  S
C1985      C1986   1.416       .  A
C1985      C1990   1.414       .  A
C1986      C1987   1.411       .  A
C1986     Br1998   1.932       .  S
C1987      C1988   1.408       .  A
C1987     Br2002   1.930       .  S
C1988      C1991   1.491       .  S
C1988      C1989   1.409       .  A
C1989      C1990   1.410       .  A
C1989     Br1997   1.929       .  S
C1990     Br2001   1.930       .  S
C1991      C1992   1.409       .  A
C1991      C1996   1.411       .  A
C1992      C1993   1.408       .  A
C1992     Br2003   1.930       .  S
C1993      C1994   1.412       .  A
C1993     Br1999   1.932       .  S
C1994      C1995   1.411       .  A
C1995      C1996   1.413       .  A
C1995     Br2004   1.927       .  S
C1996     Br2000   1.928       .  S
C2005      C2006   1.414   1_455  A
C2005      C2010   1.413       .  A
C2006      C2007   1.417   1_655  A
C2006     Br2018   1.931       .  S
C2007      C2008   1.415       .  A
C2007     Br2022   1.929   1_455  S
C2008      C2011   1.507       .  S
C2008      C2009   1.411       .  A
C2009      C2010   1.412       .  A
C2009     Br2017   1.925       .  S
C2010     Br2021   1.930       .  S
C2011      C2012   1.395       .  A
C2011      C2016   1.401       .  A
C2012      C2013   1.411       .  A
C2012     Br2023   1.937       .  S
C2013      C2014   1.456       .  A
C2013     Br2019   1.940       .  S
C2014      C2015   1.461       .  A
C2015      C2016   1.429       .  A
C2015     Br2024   1.931       .  S
C2016     Br2020   1.938       .  S
C2025      C2026   1.415       .  A
C2025      C2030   1.413       .  A
C2026      C2027   1.407       .  A
C2026     Br2038   1.932       .  S
C2027      C2028   1.407       .  A
C2027     Br2042   1.931       .  S
C2028      C2031   1.484       .  S
C2028      C2029   1.408       .  A
C2029      C2030   1.409       .  A
C2029     Br2037   1.930       .  S
C2030     Br2041   1.929       .  S
C2031      C2032   1.406       .  A
C2031      C2036   1.407       .  A
C2032      C2033   1.409       .  A
C2032     Br2043   1.931       .  S
C2033      C2034   1.418       .  A
C2033     Br2039   1.932   1_556  S
C2034      C2035   1.418       .  A
C2035      C2036   1.407       .  A
C2035     Br2044   1.933       .  S
C2036     Br2040   1.933       .  S
C2045      C2046   1.460       .  A
C2045      C2050   1.460       .  A
C2046      C2047   1.417       .  A
C2046     Br2058   1.940       .  S
C2047      C2048   1.396       .  A
C2047     Br2062   1.940       .  S
C2048      C2051   1.501       .  S
C2048      C2049   1.399       .  A
C2049      C2050   1.421       .  A
C2049     Br2057   1.941   1_556  S
C2050     Br2061   1.943   1_556  S
C2051      C2052   1.412       .  A
C2051      C2056   1.414       .  A
C2052      C2053   1.410   1_556  A
C2052     Br2063   1.928   1_556  S
C2053      C2054   1.410       .  A
C2053     Br2059   1.930       .  S
C2054      C2055   1.410   1_554  A
C2055      C2056   1.410       .  A
C2055     Br2064   1.934       .  S
C2056     Br2060   1.924       .  S
C2065      C2066   1.408       .  A
C2065      C2070   1.408       .  A
C2066      C2067   1.408       .  A
C2066     Br2078   1.929       .  S
C2067      C2068   1.409       .  A
C2067     Br2082   1.927       .  S
C2068      C2071   1.489       .  S
C2068      C2069   1.412       .  A
C2069      C2070   1.410       .  A
C2069     Br2077   1.929       .  S
C2070     Br2081   1.928       .  S
C2071      C2072   1.408       .  A
C2071      C2076   1.408       .  A
C2072      C2073   1.409       .  A
C2072     Br2083   1.931       .  S
C2073      C2074   1.416       .  A
C2073     Br2079   1.932       .  S
C2074      C2075   1.415       .  A
C2075      C2076   1.412       .  A
C2075     Br2084   1.928       .  S
C2076     Br2080   1.930       .  S
C2085      C2086   1.415       .  A
C2085      C2090   1.417       .  A
C2086      C2087   1.408       .  A
C2086     Br2098   1.932       .  S
C2087      C2088   1.408       .  A
C2087     Br2102   1.930       .  S
C2088      C2091   1.486       .  S
C2088      C2089   1.407       .  A
C2089      C2090   1.409       .  A
C2089     Br2097   1.931       .  S
C2090     Br2101   1.932       .  S
C2091      C2092   1.409       .  A
C2091      C2096   1.409       .  A
C2092      C2093   1.409       .  A
C2092     Br2103   1.929       .  S
C2093      C2094   1.411       .  A
C2093     Br2099   1.930       .  S
C2094      C2095   1.410       .  A
C2095      C2096   1.407       .  A
C2095     Br2104   1.930       .  S
C2096     Br2100   1.929       .  S
C2105      C2106   1.424       .  A
C2105      C2110   1.422       .  A
C2106      C2107   1.414       .  A
C2106     Br2118   1.935       .  S
C2107      C2108   1.408       .  A
C2107     Br2122   1.932       .  S
C2108      C2111   1.504       .  S
C2108      C2109   1.409       .  A
C2109      C2110   1.414       .  A
C2109     Br2117   1.930       .  S
C2110     Br2121   1.932       .  S
C2111      C2112   1.394       .  A
C2111      C2116   1.399       .  A
C2112      C2113   1.419       .  A
C2112     Br2123   1.942       .  S
C2113      C2114   1.457       .  A
C2113     Br2119   1.924       .  S
C2114      C2115   1.455       .  A
C2115      C2116   1.424       .  A
C2115     Br2124   1.920       .  S
C2116     Br2120   1.944       .  S
C2125      C2126   1.412       .  A
C2125      C2130   1.414       .  A
C2126      C2127   1.412       .  A
C2126     Br2138   1.929       .  S
C2127      C2128   1.410       .  A
C2127     Br2142   1.927       .  S
C2128      C2131   1.492       .  S
C2128      C2129   1.409       .  A
C2129      C2130   1.410       .  A
C2129     Br2137   1.932       .  S
C2130     Br2141   1.930       .  S
C2131      C2132   1.410       .  A
C2131      C2136   1.408       .  A
C2132      C2133   1.411       .  A
C2132     Br2143   1.931       .  S
C2133      C2134   1.415       .  A
C2133     Br2139   1.932       .  S
C2134      C2135   1.416       .  A
C2135      C2136   1.411       .  A
C2135     Br2144   1.932       .  S
C2136     Br2140   1.929       .  S
C2145      C2146   1.413       .  A
C2145      C2150   1.416       .  A
C2146      C2147   1.411       .  A
C2146     Br2158   1.928       .  S
C2147      C2148   1.408       .  A
C2147     Br2162   1.928       .  S
C2148      C2151   1.490       .  S
C2148      C2149   1.408       .  A
C2149      C2150   1.409       .  A
C2149     Br2157   1.932       .  S
C2150     Br2161   1.932       .  S
C2151      C2152   1.409       .  A
C2151      C2156   1.407       .  A
C2152      C2153   1.411       .  A
C2152     Br2163   1.931       .  S
C2153      C2154   1.416       .  A
C2153     Br2159   1.931       .  S
C2154      C2155   1.417       .  A
C2155      C2156   1.410       .  A
C2155     Br2164   1.931       .  S
C2156     Br2160   1.929       .  S
C2165      C2166   1.418       .  A
C2165      C2170   1.420       .  A
C2166      C2167   1.410       .  A
C2166     Br2178   1.931       .  S
C2167      C2168   1.408       .  A
C2167     Br2182   1.932       .  S
C2168      C2171   1.490       .  S
C2168      C2169   1.407       .  A
C2169      C2170   1.412       .  A
C2169     Br2177   1.931       .  S
C2170     Br2181   1.930       .  S
C2171      C2172   1.410       .  A
C2171      C2176   1.411       .  A
C2172      C2173   1.408       .  A
C2172     Br2183   1.928       .  S
C2173      C2174   1.408       .  A
C2173     Br2179   1.928       .  S
C2174      C2175   1.409       .  A
C2175      C2176   1.409       .  A
C2175     Br2184   1.929       .  S
C2176     Br2180   1.928       .  S
C2185      C2186   1.419       .  A
C2185      C2190   1.415       .  A
C2186      C2187   1.408       .  A
C2186     Br2198   1.934       .  S
C2187      C2188   1.408       .  A
C2187     Br2202   1.934       .  S
C2188      C2191   1.492       .  S
C2188      C2189   1.410       .  A
C2189      C2190   1.413       .  A
C2189     Br2197   1.928       .  S
C2190     Br2201   1.930       .  S
C2191      C2192   1.409       .  A
C2191      C2196   1.411       .  A
C2192      C2193   1.408       .  A
C2192     Br2203   1.931       .  S
C2193      C2194   1.413       .  A
C2193     Br2199   1.929       .  S
C2194      C2195   1.413       .  A
C2195      C2196   1.413       .  A
C2195     Br2204   1.929       .  S
C2196     Br2200   1.929       .  S
C2205      C2206   1.412       .  A
C2205      C2210   1.412       .  A
C2206      C2207   1.409       .  A
C2206     Br2218   1.932       .  S
C2207      C2208   1.409       .  A
C2207     Br2222   1.928       .  S
C2208      C2211   1.487       .  S
C2208      C2209   1.410       .  A
C2209      C2210   1.407       .  A
C2209     Br2217   1.931       .  S
C2210     Br2221   1.932       .  S
C2211      C2212   1.409       .  A
C2211      C2216   1.407       .  A
C2212      C2213   1.411       .  A
C2212     Br2223   1.930       .  S
C2213      C2214   1.415       .  A
C2213     Br2219   1.929       .  S
C2214      C2215   1.415       .  A
C2215      C2216   1.407       .  A
C2215     Br2224   1.931       .  S
C2216     Br2220   1.931       .  S
C2225      C2226   1.419       .  A
C2225      C2230   1.417       .  A
C2226      C2227   1.408       .  A
C2226     Br2238   1.932       .  S
C2227      C2228   1.405       .  A
C2227     Br2242   1.932       .  S
C2228      C2231   1.479       .  S
C2228      C2229   1.404       .  A
C2229      C2230   1.405       .  A
C2229     Br2237   1.931       .  S
C2230     Br2241   1.932       .  S
C2231      C2232   1.408       .  A
C2231      C2236   1.405       .  A
C2232      C2233   1.403       .  A
C2232     Br2243   1.934       .  S
C2233      C2234   1.416       .  A
C2233     Br2239   1.937       .  S
C2234      C2235   1.415       .  A
C2235      C2236   1.407       .  A
C2235     Br2244   1.932       .  S
C2236     Br2240   1.929       .  S
C2245      C2246   1.410       .  A
C2245      C2250   1.413       .  A
C2246      C2247   1.410       .  A
C2246     Br2258   1.929       .  S
C2247      C2248   1.409       .  A
C2247     Br2262   1.927       .  S
C2248      C2251   1.487       .  S
C2248      C2249   1.410       .  A
C2249      C2250   1.407       .  A
C2249     Br2257   1.933       .  S
C2250     Br2261   1.932       .  S
C2251      C2252   1.410       .  A
C2251      C2256   1.409       .  A
C2252      C2253   1.410       .  A
C2252     Br2263   1.928       .  S
C2253      C2254   1.412       .  A
C2253     Br2259   1.929       .  S
C2254      C2255   1.411       .  A
C2255      C2256   1.405       .  A
C2255     Br2264   1.934       .  S
C2256     Br2260   1.929       .  S
C2265      C2266   1.452       .  A
C2265      C2270   1.452       .  A
C2266      C2267   1.418       .  A
C2266     Br2278   1.929       .  S
C2267      C2268   1.401       .  A
C2267     Br2282   1.938       .  S
C2268      C2271   1.506       .  S
C2268      C2269   1.400       .  A
C2269      C2270   1.417       .  A
C2269     Br2277   1.933       .  S
C2270     Br2281   1.944       .  S
C2271      C2272   1.400       .  A
C2271      C2276   1.397       .  A
C2272      C2273   1.423       .  A
C2272     Br2283   1.942       .  S
C2273      C2274   1.457       .  A
C2273     Br2279   1.934       .  S
C2274      C2275   1.445       .  A
C2275      C2276   1.417       .  A
C2275     Br2284   1.915       .  S
C2276     Br2280   1.935       .  S
C2285      C2286   1.413       .  A
C2285      C2290   1.411       .  A
C2286      C2287   1.411       .  A
C2286     Br2298   1.929       .  S
C2287      C2288   1.409       .  A
C2287     Br2302   1.929       .  S
C2288      C2291   1.493       .  S
C2288      C2289   1.411       .  A
C2289      C2290   1.411       .  A
C2289     Br2297   1.929       .  S
C2290     Br2301   1.929       .  S
C2291      C2292   1.410       .  A
C2291      C2296   1.408       .  A
C2292      C2293   1.413       .  A
C2292     Br2303   1.929       .  S
C2293      C2294   1.414       .  A
C2293     Br2299   1.930       .  S
C2294      C2295   1.414       .  A
C2295      C2296   1.410       .  A
C2295     Br2304   1.931       .  S
C2296     Br2300   1.930       .  S
C2305      C2306   1.411       .  A
C2305      C2310   1.410       .  A
C2306      C2307   1.414       .  A
C2306     Br2318   1.930       .  S
C2307      C2308   1.413       .  A
C2307     Br2322   1.927       .  S
C2308      C2311   1.502       .  S
C2308      C2309   1.412       .  A
C2309      C2310   1.411       .  A
C2309     Br2317   1.927       .  S
C2310     Br2321   1.930       .  S
C2311      C2312   1.399       .  A
C2311      C2316   1.403       .  A
C2312      C2313   1.415       .  A
C2312     Br2323   1.937       .  S
C2313      C2314   1.461       .  A
C2313     Br2319   1.957       .  S
C2314      C2315   1.450       .  A
C2315      C2316   1.421       .  A
C2315     Br2324   1.937       .  S
C2316     Br2320   1.938       .  S
C2325      C2326   1.416       .  A
C2325      C2330   1.414       .  A
C2326      C2327   1.412       .  A
C2326     Br2338   1.930       .  S
C2327      C2328   1.409       .  A
C2327     Br2342   1.929       .  S
C2328      C2331   1.487       .  S
C2328      C2329   1.408       .  A
C2329      C2330   1.405       .  A
C2329     Br2337   1.932       .  S
C2330     Br2341   1.933       .  S
C2331      C2332   1.406       .  A
C2331      C2336   1.406       .  A
C2332      C2333   1.411       .  A
C2332     Br2343   1.931       .  S
C2333      C2334   1.420       .  A
C2333     Br2339   1.933       .  S
C2334      C2335   1.417       .  A
C2335      C2336   1.408       .  A
C2335     Br2344   1.931       .  S
C2336     Br2340   1.931       .  S
C2345      C2346   1.410       .  A
C2345      C2350   1.408       .  A
C2346      C2347   1.410       .  A
C2346     Br2358   1.930       .  S
C2347      C2348   1.410       .  A
C2347     Br2362   1.928       .  S
C2348      C2351   1.491       .  S
C2348      C2349   1.411       .  A
C2349      C2350   1.410       .  A
C2349     Br2357   1.928       .  S
C2350     Br2361   1.928       .  S
C2351      C2352   1.408       .  A
C2351      C2356   1.413       .  A
C2352      C2353   1.406       .  A
C2352     Br2363   1.930       .  S
C2353      C2354   1.411       .  A
C2353     Br2359   1.930       .  S
C2354      C2355   1.409       .  A
C2355      C2356   1.414       .  A
C2355     Br2364   1.927       .  S
C2356     Br2360   1.927       .  S
C2365      C2366   1.418       .  A
C2365      C2370   1.418       .  A
C2366      C2367   1.411       .  A
C2366     Br2378   1.927       .  S
C2367      C2368   1.410       .  A
C2367     Br2382   1.934       .  S
C2368      C2371   1.497       .  S
C2368      C2369   1.407       .  A
C2369      C2370   1.414       .  A
C2369     Br2377   1.929       .  S
C2370     Br2381   1.928       .  S
C2371      C2372   1.400       .  A
C2371      C2376   1.403       .  A
C2372      C2373   1.409       .  A
C2372     Br2383   1.929       .  S
C2373      C2374   1.430       .  A
C2373     Br2379   1.934       .  S
C2374      C2375   1.458       .  A
C2375      C2376   1.418       .  A
C2375     Br2384   1.952       .  S
C2376     Br2380   1.940       .  S
C2385      C2386   1.412       .  A
C2385      C2390   1.413       .  A
C2386      C2387   1.407       .  A
C2386     Br2398   1.931       .  S
C2387      C2388   1.409       .  A
C2387     Br2402   1.931       .  S
C2388      C2391   1.488       .  S
C2388      C2389   1.409       .  A
C2389      C2390   1.411       .  A
C2389     Br2397   1.929       .  S
C2390     Br2401   1.929       .  S
C2391      C2392   1.409       .  A
C2391      C2396   1.410       .  A
C2392      C2393   1.406       .  A
C2392     Br2403   1.931       .  S
C2393      C2394   1.410       .  A
C2393     Br2399   1.927       .  S
C2394      C2395   1.411       .  A
C2395      C2396   1.411       .  A
C2395     Br2404   1.928       .  S
C2396     Br2400   1.928       .  S
C2405      C2406   1.414       .  A
C2405      C2410   1.414       .  A
C2406      C2407   1.407       .  A
C2406     Br2418   1.932       .  S
C2407      C2408   1.407       .  A
C2407     Br2422   1.931       .  S
C2408      C2411   1.486       .  S
C2408      C2409   1.409       .  A
C2409      C2410   1.411       .  A
C2409     Br2417   1.930       .  S
C2410     Br2421   1.929       .  S
C2411      C2412   1.407       .  A
C2411      C2416   1.410       .  A
C2412      C2413   1.404       .  A
C2412     Br2423   1.934       .  S
C2413      C2414   1.414       .  A
C2413     Br2419   1.930       .  S
C2414      C2415   1.411       .  A
C2415      C2416   1.411       .  A
C2415     Br2424   1.929       .  S
C2416     Br2420   1.927       .  S
C2425      C2426   1.418       .  A
C2425      C2430   1.419       .  A
C2426      C2427   1.409       .  A
C2426     Br2438   1.933       .  S
C2427      C2428   1.409       .  A
C2427     Br2442   1.934       .  S
C2428      C2431   1.493       .  S
C2428      C2429   1.407       .  A
C2429      C2430   1.412       .  A
C2429     Br2437   1.928       .  S
C2430     Br2441   1.932       .  S
C2431      C2432   1.398       .  A
C2431      C2436   1.402       .  A
C2432      C2433   1.409       .  A
C2432     Br2443   1.936       .  S
C2433      C2434   1.452       .  A
C2433     Br2439   1.945       .  S
C2434      C2435   1.440       .  A
C2435      C2436   1.417       .  A
C2435     Br2444   1.924       .  S
C2436     Br2440   1.936       .  S
C2445      C2446   1.411       .  A
C2445      C2450   1.411       .  A
C2446      C2447   1.410       .  A
C2446     Br2458   1.930       .  S
C2447      C2448   1.411       .  A
C2447     Br2462   1.929       .  S
C2448      C2451   1.487       .  S
C2448      C2449   1.408       .  A
C2449      C2450   1.407       .  A
C2449     Br2457   1.930       .  S
C2450     Br2461   1.929       .  S
C2451      C2452   1.409       .  A
C2451      C2456   1.411       .  A
C2452      C2453   1.406       .  A
C2452     Br2463   1.931       .  S
C2453      C2454   1.412       .  A
C2453     Br2459   1.932       .  S
C2454      C2455   1.409       .  A
C2455      C2456   1.410       .  A
C2455     Br2464   1.929       .  S
C2456     Br2460   1.927       .  S
