geometry optimzed in LAMMPS
_audit_creation_date              2020-11-30 
_audit_creation_method            'lammps2cif' 
_symmetry_space_group_name_H-M    'P1' 
_symmetry_Int_Tables_number       1 
_symmetry_cell_setting            triclinic 
loop_ 
_symmetry_equiv_pos_as_xyz 
  x,y,z 
_cell_length_a                    56.33105255 
_cell_length_b                    56.301969316313205 
_cell_length_c                    33.4594615950186 
_cell_angle_alpha                 89.9601269928282 
_cell_angle_beta                  89.9594484873191 
_cell_angle_gamma                 120.00169383951142 
loop_ 
_atom_site_label 
_atom_site_type_symbol 
_atom_site_fract_x 
_atom_site_fract_y 
_atom_site_fract_z 
_atom_site_charge 
Fe1        Fe  0.34995430  0.42454480  0.12669107     1.65800
Fe2        Fe  0.28883796  0.39396648  0.17533505     1.73200
Fe3        Fe  0.29054282  0.39380660  0.07388334     1.54400
O4          O  0.31858155  0.42978936  0.04531621    -0.82600
O5          O  0.26620331  0.35347942  0.15905158    -0.80900
O6          O  0.35234064  0.45424645  0.08809681    -0.85100
O7          O  0.35354887  0.40240809  0.07986131    -0.80000
O8          O  0.26801488  0.41210787  0.08811393    -0.81800
O9          O  0.31530332  0.38425801  0.20490085    -0.84500
C10         C  0.33704593  0.38294723  0.05732783     0.96300
C11         C  0.33987896  0.45190541  0.05549661     1.03700
O12         O  0.30981212  0.40408589  0.12533785    -1.13500
O13         O  0.30943556  0.43358809  0.19657962    -0.75900
O14         O  0.35168878  0.44910275  0.17397332    -0.79400
O15         O  0.31163361  0.37484461  0.05539824    -0.80100
C16         C  0.33474241  0.45127955  0.19664989     0.95200
O17         O  0.35157929  0.39707203  0.16539243    -0.78000
O18         O  0.25909887  0.40172091  0.15259842    -0.83200
C19         C  0.25286091  0.34309106  0.12722713     0.97800
C20         C  0.25428675  0.40955228  0.11943872     1.03700
O21         O  0.25901422  0.35622274  0.09437309    -0.78900
C22         C  0.33762491  0.38499458  0.19623314     1.02000
Fe23       Fe  0.07113241  0.42413914  0.12677286     1.65800
Fe24       Fe  0.10075216  0.39249118  0.17614406     1.73200
Fe25       Fe  0.09894793  0.39238581  0.07398847     1.54400
O26         O  0.06174449  0.38241497  0.04837243    -0.82600
O27         O  0.14080203  0.40757859  0.15778837    -0.80900
O28         O  0.04061668  0.39720206  0.08887187    -0.85100
O29         O  0.09284260  0.44895003  0.07896723    -0.80000
O30         O  0.08206236  0.35180301  0.09095501    -0.81800
O31         O  0.11282039  0.42972277  0.20351808    -0.84500
C32         C  0.11014285  0.45004090  0.05360796     0.96300
C33         C  0.04103716  0.38450290  0.05782030     1.03700
O34         O  0.09029061  0.40302398  0.12565128    -1.13500
O35         O  0.06187740  0.37607345  0.20037028    -0.75900
O36         O  0.04651975  0.40228752  0.17450435    -0.79400
O37         O  0.11691916  0.43173874  0.05111692    -0.80100
C38         C  0.04459790  0.38427095  0.19919627     0.95200
O39         O  0.09973045  0.45333854  0.16478632    -0.78000
O40         O  0.09034998  0.35388146  0.15607453    -0.83200
C41         C  0.15123204  0.40757266  0.12417152     0.97800
C42         C  0.08250734  0.34055092  0.12365606     1.03700
O43         O  0.13732865  0.40101598  0.09214778    -0.78900
C44         C  0.11244500  0.45148401  0.19487791     1.02000
Fe45       Fe  0.06914814  0.14281849  0.12419574     1.65800
Fe46       Fe  0.10008546  0.20352621  0.07290570     1.73200
Fe47       Fe  0.09863838  0.20355867  0.17503921     1.54400
O48         O  0.05979244  0.18041149  0.19828050    -0.82600
O49         O  0.13869028  0.23244469  0.09233051    -0.80900
O50         O  0.04333605  0.13939795  0.17016480    -0.85100
O51         O  0.09610649  0.14092872  0.16402697    -0.80000
O52         O  0.08716945  0.23123462  0.15503582    -0.81800
O53         O  0.11660060  0.18096549  0.05037353    -0.84500
C54         C  0.10980053  0.15569201  0.19343045     0.96300
C55         C  0.04183825  0.15527794  0.19549781     1.03700
O56         O  0.08932424  0.18330744  0.12406961    -1.13500
O57         O  0.06294056  0.17780498  0.04625193    -0.75900
O58         O  0.04010495  0.14053153  0.08419905    -0.79400
O59         O  0.11130924  0.17845638  0.20157354    -0.80100
C60         C  0.04180144  0.15493631  0.05391324     0.95200
O61         O  0.09183451  0.13985668  0.07834213    -0.78000
O62         O  0.08480815  0.22846251  0.08891604    -0.83200
C63         C  0.15081373  0.23998246  0.12572697     0.97800
C64         C  0.08228746  0.23845352  0.12141138     1.03700
O65         O  0.13877470  0.22950920  0.15852488    -0.78900
C66         C  0.10925487  0.15575587  0.05299797     1.02000
Fe67       Fe  0.42598296  0.35453588  0.37698858     1.65800
Fe68       Fe  0.39526454  0.29405105  0.32606602     1.73200
Fe69       Fe  0.39841484  0.29399252  0.42805905     1.54400
O70         O  0.43818062  0.31661440  0.44807624    -0.82600
O71         O  0.35711554  0.26488433  0.34760031    -0.80900
O72         O  0.45231366  0.35812747  0.42279108    -0.85100
O73         O  0.39880792  0.35571870  0.41685940    -0.80000
O74         O  0.40752343  0.26490261  0.40678312    -0.81800
O75         O  0.37741037  0.31578714  0.30474309    -0.84500
C76         C  0.38750186  0.34170972  0.44797749     0.96300
C77         C  0.45551163  0.34200524  0.44584389     1.03700
O78         O  0.40653567  0.31416419  0.37701458    -1.13500
O79         O  0.43212627  0.32040051  0.29790265    -0.75900
O80         O  0.45489045  0.35714313  0.33684501    -0.79400
O81         O  0.38780790  0.31992899  0.45683056    -0.80100
C82         C  0.45345945  0.34300572  0.30643732     0.95200
O83         O  0.40283852  0.35723695  0.33118245    -0.78000
O84         O  0.41155102  0.26975599  0.34088966    -0.83200
C85         C  0.34526308  0.25791775  0.38144356     0.97800
C86         C  0.41230802  0.25811450  0.37282709     1.03700
O87         O  0.35771204  0.26901003  0.41364566    -0.78900
C88         C  0.38477474  0.34100689  0.30679342     1.02000
Fe89       Fe  0.42411715  0.07233484  0.37767367     1.65800
Fe90       Fe  0.39309778  0.10323750  0.42658563     1.73200
Fe91       Fe  0.39477335  0.10274001  0.32427587     1.52000
O92         O  0.43400741  0.11862753  0.30220532    -0.82600
O93         O  0.35456601  0.09193023  0.40627580    -0.80900
O94         O  0.45201663  0.09677190  0.33481133    -0.85100
O95         O  0.40015693  0.04447799  0.33442817    -0.80000
O96         O  0.40556686  0.14172266  0.34275075    -0.81800
O97         O  0.37742135  0.06460915  0.45096904    -0.84500
C98         C  0.38696122  0.04543829  0.30435777     0.96300
C99         C  0.45312687  0.11333414  0.30811968     1.03700
O100        O  0.40401625  0.09274172  0.37616934    -1.13500
O101        O  0.43007448  0.11622233  0.45388974    -0.75900
O102        O  0.45114973  0.09765162  0.42088068    -0.79400
O103        O  0.38315841  0.06545023  0.29773352    -0.80100
C104        C  0.45017458  0.11248432  0.44862507     0.95200
O105        O  0.39835507  0.04497148  0.42015461    -0.78000
O106        O  0.40734694  0.14324758  0.40896678    -0.83200
C107        C  0.34215489  0.08612848  0.37311820     0.97800
C108        C  0.41005971  0.15473354  0.37538519     1.03700
O109        O  0.35426934  0.08782529  0.34028736    -0.78900
C110        C  0.38165687  0.04470917  0.44584908     1.02000
Fe111      Fe  0.14638259  0.07218370  0.37555447     1.65800
Fe112      Fe  0.20700075  0.10437864  0.42590709     1.73200
Fe113      Fe  0.20616427  0.10545126  0.32422445     1.54400
O114        O  0.17980127  0.06871997  0.29629206    -0.82600
O115        O  0.23045152  0.14485552  0.40977105    -0.80900
O116        O  0.14632482  0.04294649  0.33890352    -0.85100
O117        O  0.14202165  0.09256457  0.32669000    -0.80000
O118        O  0.23018527  0.08898975  0.33892907    -0.81800
O119        O  0.18012606  0.11452927  0.45259020    -0.84500
C120        C  0.15786897  0.11235823  0.30402484     0.96300
C121        C  0.15953297  0.04586574  0.30687296     1.03700
O122        O  0.18654336  0.09405973  0.37540036    -1.13500
O123        O  0.18616717  0.06537311  0.44914406    -0.75900
O124        O  0.14425808  0.04821835  0.42390590    -0.79400
O125        O  0.18369362  0.12286084  0.30476236    -0.80100
C126        C  0.16106030  0.04722298  0.44811108     0.95200
O127        O  0.14351862  0.09959314  0.41272440    -0.78000
O128        O  0.23614095  0.09528391  0.40453661    -0.83200
C129        C  0.24206387  0.15646450  0.37734224     0.97800
C130        C  0.24175159  0.08847410  0.37105161     1.03700
O131        O  0.23594147  0.14368206  0.34435749    -0.78900
C132        C  0.15746563  0.11277049  0.44300544     1.02000
C133        C  0.31298975  0.07926014  0.37243134    -0.07100
C134        C  0.30149644  0.08027032  0.33567151    -0.18200
C135        C  0.27681627  0.08046719  0.33373016     0.10100
C136        C  0.26362605  0.08100196  0.36962911    -0.07000
C137        C  0.27357558  0.07697858  0.40599956    -0.18200
C138        C  0.29747910  0.07533325  0.40773153     0.10200
S139        S  0.26448414  0.08140757  0.28438919    -0.33200
S140        S  0.30682939  0.06844532  0.45612804    -0.33200
H141        H  0.31587304  0.05097260  0.44107741     0.28200
H142        H  0.23809005  0.05908588  0.29188597     0.28200
H143        H  0.31231846  0.08206619  0.30805728     0.18800
H144        H  0.26298854  0.07566815  0.43367356     0.18800
C145        C  0.31619680  0.23502953  0.38293589    -0.07100
C146        C  0.30133656  0.22630212  0.34692237    -0.18200
C147        C  0.27583736  0.20217001  0.34477251     0.10100
C148        C  0.26510055  0.18531270  0.37900438    -0.07000
C149        C  0.27878112  0.19513283  0.41560710    -0.18200
C150        C  0.30369707  0.21976713  0.41817297     0.10200
S151        S  0.25811455  0.19435035  0.29754670    -0.33200
S152        S  0.31882198  0.22918462  0.46717633    -0.33200
H153        H  0.32108163  0.25523153  0.46573165     0.28200
H154        H  0.23188616  0.18341293  0.31476170     0.28200
H155        H  0.30979566  0.23816634  0.31984722     0.18800
H156        H  0.27063151  0.18297039  0.44251991     0.18800
C157        C  0.41723988  0.23454579  0.37040530    -0.07100
C158        C  0.42640102  0.22695140  0.40463567    -0.18200
C159        C  0.42661381  0.20214982  0.40636558     0.10100
C160        C  0.41659800  0.18382767  0.37353197    -0.07000
C161        C  0.40948197  0.19247131  0.33842530    -0.18200
C162        C  0.40971805  0.21730469  0.33636633     0.10200
S163        S  0.43984009  0.19531699  0.45129262    -0.33200
S164        S  0.39696348  0.22371624  0.29064918    -0.33200
H165        H  0.42187172  0.24767121  0.28235447     0.28200
H166        H  0.45301214  0.18313846  0.43118881     0.28200
H167        H  0.43293231  0.24017060  0.43063444     0.18800
H168        H  0.40208064  0.17907677  0.31266217     0.18800
C169        C  0.47338968  0.12590261  0.47625172    -0.07100
C170        C  0.99896162  0.14218534  0.45857902    -0.18200
C171        C  0.02229908  0.15259595  0.48276423     0.10100
C172        C  0.01825561  0.14471058  0.02621289    -0.07000
C173        C  0.49302596  0.13127083  0.04096062    -0.18200
C174        C  0.46979651  0.11994370  0.01667206     0.10200
S175        S  0.05502466  0.17109626  0.45785529    -0.33200
S176        S  0.43706410  0.09793483  0.03980175    -0.33200
H177        H  0.42392718  0.10650920  0.52653475     0.28200
H178        H  0.06655525  0.15343492  0.98503743     0.28200
H179        H  0.00134358  0.14575469  0.42662023     0.18800
H180        H  0.49049407  0.12730698  0.07280977     0.18800
C181        C  0.01854127  0.14393793  0.22356846    -0.07100
C182        C  0.00545225  0.15903636  0.23184178    -0.18200
C183        C  0.98411560  0.14969101  0.25978263     0.10100
C184        C  0.47692528  0.12538478  0.28096645    -0.07000
C185        C  0.48515755  0.10772831  0.26459961    -0.18200
C186        C  0.50568665  0.11678703  0.23559761     0.10200
S187        S  0.96954194  0.17127356  0.26943318    -0.33200
S188        S  0.51528459  0.09246775  0.21833336    -0.33200
H189        H  0.01652566  0.09090810  0.19901378     0.28200
H190        H  0.47581352  0.16584780  0.32843367     0.28200
H191        H  0.01203758  0.17835303  0.21663356     0.18800
H192        H  0.47504160  0.08641729  0.27384247     0.18800
C193        C  0.14577945  0.12315323  0.27496581    -0.07100
C194        C  0.15893123  0.15152139  0.26788038    -0.18200
C195        C  0.14841568  0.16268055  0.24036760     0.10100
C196        C  0.12357917  0.14524797  0.22015571    -0.07000
C197        C  0.11083347  0.11682546  0.22664599    -0.18200
C198        C  0.12186154  0.10561545  0.25301631     0.10200
S199        S  0.16841181  0.19905330  0.23106967    -0.33200
S200        S  0.10522015  0.06871346  0.25553246    -0.33200
H201        H  0.12978429  0.06793494  0.25669045     0.28200
H202        H  0.16326652  0.19688777  0.18969343     0.28200
H203        H  0.17773264  0.16511842  0.28364148     0.18800
H204        H  0.09205679  0.10310170  0.21093383     0.18800
C205        C  0.14603196  0.12546789  0.46919526    -0.07100
C206        C  0.11840097  0.10962188  0.48002334    -0.18200
C207        C  0.10540506  0.11754672  0.00880632     0.10100
C208        C  0.12107360  0.14431165  0.02483035    -0.07000
C209        C  0.14852799  0.16073563  0.01287692    -0.18200
C210        C  0.16187258  0.15227187  0.48460224     0.10200
S211        S  0.06956418  0.09481695  0.01967169    -0.33200
S212        S  0.19705712  0.17493567  0.47032183    -0.33200
H213        H  0.19390120  0.16555096  0.43065997     0.28200
H214        H  0.06221674  0.11523913  0.01899677     0.28200
H215        H  0.10611588  0.08908635  0.46809138     0.18800
H216        H  0.16064509  0.18134503  0.02458080     0.18800
C217        C  0.12209889  0.47317080  0.02498866    -0.07100
C218        C  0.14644779  0.00448299  0.04170132    -0.18200
C219        C  0.15779893  0.02723852  0.01617790     0.10100
C220        C  0.15069013  0.02400758  0.47635570    -0.07000
C221        C  0.11799268  0.50492172  0.47898245    -0.18200
C222        C  0.10626420  0.48256079  0.50498858     0.10200
S223        S  0.17994130  0.06033201  0.03822710    -0.33200
S224        S  0.06947059  0.46440897  0.50927221    -0.33200
H225        H  0.06678129  0.43820031  0.51041623     0.28200
H226        H  0.16669600  0.07435405  0.51608863     0.28200
H227        H  0.15200892  0.00733810  0.07293648     0.18800
H228        H  0.10468109  0.51085175  0.46403917     0.18800
C229        C  0.15052958  0.02220767  0.27973395    -0.07100
C230        C  0.15312475  0.02723204  0.23838087    -0.18200
C231        C  0.14334567  0.00573751  0.21090694     0.10100
C232        C  0.12665463  0.47522404  0.22204030    -0.07000
C233        C  0.12314967  0.47048912  0.26341893    -0.18200
C234        C  0.13443036  0.49218740  0.29075489     0.10200
S235        S  0.14876386  0.01453906  0.15863230    -0.33200
S236        S  0.12957728  0.48355969  0.34321369    -0.33200
H237        H  0.16240073  0.00851394  0.35577587     0.28200
H238        H  0.15191127  0.48695461  0.14633203     0.28200
H239        H  0.16249782  0.04807999  0.22725607     0.18800
H240        H  0.11116619  0.44969315  0.27457621     0.18800
C241        C  0.47743625  0.35397768  0.27927536    -0.07100
C242        C  0.49212825  0.38236296  0.27224347    -0.18200
C243        C  0.01114353  0.38912872  0.24421656     0.10100
C244        C  0.02146893  0.37284329  0.22808194    -0.07000
C245        C  0.00946905  0.34526381  0.24009061    -0.18200
C246        C  0.48590604  0.33711872  0.25990003     0.10200
S247        S  0.02708794  0.42562734  0.23612065    -0.33200
S248        S  0.47053859  0.30092118  0.26958824    -0.33200
H249        H  0.46679393  0.30300186  0.31075301     0.28200
H250        H  0.05407509  0.43047040  0.23928238     0.28200
H251        H  0.48613084  0.39561074  0.28727401     0.18800
H252        H  0.01764772  0.33272400  0.22895950     0.18800
C253        C  0.01689334  0.37194163  0.03073429    -0.07100
C254        C  0.51423282  0.35117283  0.01094377    -0.18200
C255        C  0.49292033  0.33963565  0.98297438     0.10100
C256        C  0.47975420  0.35375834  0.47256383    -0.07000
C257        C  0.98136265  0.37419953  0.49469373    -0.18200
C258        C  0.00172771  0.38529231  0.52392944     0.10200
S259        S  0.48693050  0.30877343  0.95788810    -0.33200
S260        S  0.00557617  0.41487742  0.55023585    -0.33200
H261        H  0.99547853  0.39696459  0.09011497     0.28200
H262        H  0.47962837  0.31218861  0.42523837     0.28200
H263        H  0.52565904  0.34081924  0.01732919     0.18800
H264        H  0.96880713  0.38351358  0.48947499     0.18800
C265        C  0.07563431  0.31131473  0.12333853    -0.07100
C266        C  0.07583917  0.29940450  0.08656085    -0.18200
C267        C  0.07504318  0.27422391  0.08449711     0.10100
C268        C  0.07522495  0.26073342  0.12029470    -0.07000
C269        C  0.07192002  0.27114717  0.15678951    -0.18200
C270        C  0.07162907  0.29589368  0.15875593     0.10200
S271        S  0.07496330  0.26149631  0.03502975    -0.33200
S272        S  0.06631303  0.30723946  0.20684137    -0.33200
H273        H  0.06063534  0.28364450  0.22876440     0.28200
H274        H  0.05321992  0.23495182  0.04352118     0.28200
H275        H  0.07769971  0.31026034  0.05890663     0.18800
H276        H  0.07065509  0.26041125  0.18427711     0.18800
C277        C  0.34550939  0.47532910  0.22420852    -0.07100
C278        C  0.36620399  0.00433287  0.20765494    -0.18200
C279        C  0.37741247  0.02684339  0.23358888     0.10100
C280        C  0.37604824  0.02248739  0.27543813    -0.07000
C281        C  0.34172308  0.50152793  0.27961955    -0.18200
C282        C  0.32959851  0.47851503  0.25457652     0.10200
S283        S  0.39462561  0.06052598  0.21124317    -0.33200
S284        S  0.29416356  0.45391077  0.26438832    -0.33200
H285        H  0.29939906  0.43218891  0.27027569     0.28200
H286        H  0.41647312  0.07163425  0.23867984     0.28200
H287        H  0.36706175  0.00790860  0.17570692     0.18800
H288        H  0.32955430  0.50370000  0.30293812     0.18800
C289        C  0.35073195  0.47546708  0.02754288    -0.07100
C290        C  0.34990669  0.47108786  0.48774476    -0.18200
C291        C  0.35993875  0.49240605  0.45968141     0.10100
C292        C  0.36736596  0.02063964  0.47219268    -0.07000
C293        C  0.36759524  0.02346857  0.01136130    -0.18200
C294        C  0.35664357  0.00166686  0.03849697     0.10200
S295        S  0.35616506  0.48283991  0.40764204    -0.33200
S296        S  0.35838527  0.00984992  0.09084303    -0.33200
H297        H  0.33487892  0.48865943  0.10086613     0.28200
H298        H  0.34774991  0.00888655  0.39333546     0.28200
H299        H  0.34137981  0.45018989  0.47719711     0.18800
H300        H  0.37729453  0.04425202  0.02272861     0.18800
C301        C  0.34806884  0.37005222  0.03073489    -0.07100
C302        C  0.34300070  0.36973446  0.98966697    -0.18200
C303        C  0.35436425  0.35952406  0.96223189     0.10100
C304        C  0.37383331  0.35135513  0.47565350    -0.07000
C305        C  0.38121581  0.35436226  0.51615606    -0.18200
C306        C  0.36975740  0.36445149  0.54371305     0.10200
S307        S  0.34617251  0.35980859  0.91016891    -0.33200
S308        S  0.38056179  0.36736076  0.59508277    -0.33200
H309        H  0.34636041  0.35432830  0.11107859     0.28200
H310        H  0.34494891  0.33132505  0.40302856     0.28200
H311        H  0.33042084  0.37794587  0.97879898     0.18800
H312        H  0.39630725  0.34912834  0.52630813     0.18800
C313        C  0.37265193  0.35221820  0.27856353    -0.07100
C314        C  0.34449221  0.33702830  0.26986468    -0.18200
C315        C  0.33243395  0.34679973  0.24259806     0.10100
C316        C  0.34876582  0.37254644  0.22394988    -0.07000
C317        C  0.37689006  0.38748754  0.23240039    -0.18200
C318        C  0.38901076  0.37756493  0.25891139     0.10200
S319        S  0.29652872  0.32499822  0.23161739    -0.33200
S320        S  0.42572293  0.39771516  0.26466037    -0.33200
H321        H  0.42985819  0.37505743  0.26386812     0.28200
H322        H  0.29893067  0.33184713  0.19079626     0.28200
H323        H  0.33184818  0.31733626  0.28416799     0.18800
H324        H  0.38965632  0.40713581  0.21803947     0.18800
C325        C  0.18014738  0.41360607  0.12162336    -0.07100
C326        C  0.18825298  0.40585731  0.08645720    -0.18200
C327        C  0.21318740  0.40632872  0.08379380     0.10100
C328        C  0.23078380  0.41436838  0.11731305    -0.07000
C329        C  0.22366454  0.42384253  0.15156643    -0.18200
C330        C  0.19898411  0.42414997  0.15381459     0.10200
S331        S  0.21960258  0.39334070  0.03829864    -0.33200
S332        S  0.19305959  0.43818260  0.19861372    -0.33200
H333        H  0.18211062  0.45240204  0.17818532     0.28200
H334        H  0.24350052  0.41829670  0.02947011     0.28200
H335        H  0.17452091  0.39804711  0.06107905     0.18800
H336        H  0.23728534  0.43067977  0.17714532     0.18800
C337        C  0.22849330  0.31512527  0.12873701    -0.07100
C338        C  0.22120024  0.29835780  0.09464150    -0.18200
C339        C  0.19715986  0.27266099  0.09362500     0.10100
C340        C  0.17934396  0.26357547  0.12712124    -0.07000
C341        C  0.18747967  0.27973885  0.16185181    -0.18200
C342        C  0.21133514  0.30534887  0.16286745     0.10200
S343        S  0.19078882  0.25243245  0.04898545    -0.33200
S344        S  0.21684439  0.32550534  0.20738633    -0.33200
H345        H  0.22145712  0.34910522  0.18636210     0.28200
H346        H  0.17923249  0.22719445  0.06937640     0.28200
H347        H  0.23432342  0.30533188  0.06850066     0.18800
H348        H  0.17414044  0.27336440  0.18776352     0.18800
Fe349      Fe  0.35078248  0.42494117  0.62730697     1.65800
Fe350      Fe  0.28965666  0.39354017  0.67588296     1.73200
Fe351      Fe  0.29139939  0.39384182  0.57447118     1.54400
O352        O  0.31893768  0.43032728  0.54653497    -0.82600
O353        O  0.26777949  0.35311902  0.65931766    -0.80900
O354        O  0.35282052  0.45478364  0.58917618    -0.85100
O355        O  0.35494536  0.40354798  0.58003004    -0.80000
O356        O  0.26806349  0.41128835  0.58928148    -0.81800
O357        O  0.31643743  0.38439575  0.70523819    -0.84500
C358        C  0.33875413  0.38409822  0.55726317     0.96300
C359        C  0.34014765  0.45252257  0.55678076     1.03700
O360        O  0.31064812  0.40410371  0.62588786    -1.13500
O361        O  0.30965086  0.43311229  0.69724044    -0.75900
O362        O  0.35206326  0.44886854  0.67502056    -0.79400
O363        O  0.31325067  0.37568127  0.55529292    -0.80100
C364        C  0.33494848  0.45083537  0.69755466     0.95200
O365        O  0.35262770  0.39729030  0.66552168    -0.78000
O366        O  0.25947809  0.40066052  0.65364578    -0.83200
C367        C  0.25451654  0.34267040  0.62748412     0.97800
C368        C  0.25449042  0.40868127  0.62082530     1.03700
O369        O  0.26045699  0.35587285  0.59469530    -0.78900
C370        C  0.33868943  0.38512096  0.69634996     1.02000
Fe371      Fe  0.07220124  0.42591396  0.62736204     1.65800
Fe372      Fe  0.10108141  0.39378383  0.67735824     1.73200
Fe373      Fe  0.10035251  0.39410838  0.57514805     1.54400
O374        O  0.06313807  0.38387192  0.54921604    -0.82600
O375        O  0.14118691  0.40819941  0.65976631    -0.80900
O376        O  0.04194877  0.39908206  0.58896424    -0.85100
O377        O  0.09421980  0.45067872  0.57986588    -0.80000
O378        O  0.08372989  0.35356158  0.59195755    -0.81800
O379        O  0.11350464  0.43112809  0.70445682    -0.84500
C380        C  0.11138486  0.45165144  0.55440638     0.96300
C381        C  0.04245603  0.38613791  0.55822721     1.03700
O382        O  0.09123520  0.40461928  0.62662271    -1.13500
O383        O  0.06207275  0.37781856  0.70097637    -0.75900
O384        O  0.04711185  0.40430023  0.67487128    -0.79400
O385        O  0.11818549  0.43336992  0.55204305    -0.80100
C386        C  0.04492021  0.38616571  0.69952712     0.95200
O387        O  0.10066219  0.45494807  0.66569793    -0.78000
O388        O  0.09033866  0.35511823  0.65746680    -0.83200
C389        C  0.15210896  0.40866001  0.62638756     0.97800
C390        C  0.08342600  0.34207046  0.62478359     1.03700
O391        O  0.13872857  0.40293457  0.59390777    -0.78900
C392        C  0.11330623  0.45297433  0.69579856     1.02000
Fe393      Fe  0.07021732  0.14415488  0.62196860     1.65800
Fe394      Fe  0.10138379  0.20533819  0.57160438     1.73200
Fe395      Fe  0.09937550  0.20439666  0.67384361     1.54400
O396        O  0.06037727  0.18110582  0.69658978    -0.82600
O397        O  0.14006558  0.23340069  0.59152208    -0.80900
O398        O  0.04396386  0.14039613  0.66749476    -0.85100
O399        O  0.09663972  0.14171687  0.66245174    -0.80000
O400        O  0.08827439  0.23239924  0.65437149    -0.81800
O401        O  0.11744470  0.18264755  0.54810105    -0.84500
C402        C  0.11001605  0.15623899  0.69224537     0.96300
C403        C  0.04244035  0.15597257  0.69336717     1.03700
O404        O  0.09033991  0.18462468  0.62247162    -1.13500
O405        O  0.06411310  0.18033883  0.54474827    -0.75900
O406        O  0.04169166  0.14230909  0.58131320    -0.79400
O407        O  0.11159195  0.17901481  0.70033241    -0.80100
C408        C  0.04314388  0.15721020  0.55178031     0.95200
O409        O  0.09339096  0.14161178  0.57658728    -0.78000
O410        O  0.08676339  0.23071461  0.58821524    -0.83200
C411        C  0.15202649  0.24051657  0.62506384     0.97800
C412        C  0.08392473  0.24024557  0.62092499     1.03700
O413        O  0.13965126  0.23016739  0.65772415    -0.78900
C414        C  0.11049817  0.15756837  0.55097835     1.02000
Fe415      Fe  0.42471140  0.35371934  0.87862138     1.65800
Fe416      Fe  0.39508612  0.29355445  0.82698255     1.73200
Fe417      Fe  0.39729013  0.29288728  0.92887270     1.54400
O418        O  0.43696793  0.31555937  0.94911601    -0.82600
O419        O  0.35688979  0.26387006  0.84784320    -0.80900
O420        O  0.45041405  0.35729644  0.92510091    -0.85100
O421        O  0.39680251  0.35413212  0.91767097    -0.80000
O422        O  0.40654075  0.26383532  0.90762619    -0.81800
O423        O  0.37703110  0.31509702  0.80552776    -0.84500
C424        C  0.38543200  0.34001564  0.94866053     0.96300
C425        C  0.45383072  0.34110309  0.94761315     1.03700
O426        O  0.40571069  0.31335851  0.87810611    -1.13500
O427        O  0.43201854  0.32052810  0.79956938    -0.75900
O428        O  0.45426509  0.35714418  0.83902527    -0.79400
O429        O  0.38627063  0.31852927  0.95769178    -0.80100
C430        C  0.45305504  0.34332068  0.80834093     0.95200
O431        O  0.40213547  0.35646953  0.83233312    -0.78000
O432        O  0.41177710  0.26959697  0.84194875    -0.83200
C433        C  0.34469756  0.25685747  0.88145564     0.97800
C434        C  0.41190276  0.25747275  0.87374626     1.03700
O435        O  0.35675897  0.26802154  0.91383487    -0.78900
C436        C  0.38440488  0.34033128  0.80757400     1.02000
Fe437      Fe  0.42373332  0.07139262  0.87645628     1.65800
Fe438      Fe  0.39264154  0.10214274  0.92566326     1.73200
Fe439      Fe  0.39580109  0.10333168  0.82358268     1.52000
O440        O  0.43401974  0.11592129  0.80013615    -0.82600
O441        O  0.35328739  0.08861151  0.90624622    -0.80900
O442        O  0.45358371  0.09753401  0.83717687    -0.85100
O443        O  0.40137300  0.04573725  0.83027372    -0.80000
O444        O  0.41011384  0.14306772  0.84168646    -0.81800
O445        O  0.37904623  0.06396833  0.95101226    -0.84500
C446        C  0.38585526  0.04582413  0.80290748     0.96300
C447        C  0.45402897  0.11250237  0.80852105     1.03700
O448        O  0.40404721  0.09226070  0.87524278    -1.13500
O449        O  0.43054170  0.11714303  0.95114830    -0.75900
O450        O  0.44905088  0.09441708  0.92254514    -0.79400
O451        O  0.38063105  0.06509096  0.79864418    -0.80100
C452        C  0.44938038  0.11124821  0.94799690     0.95200
O453        O  0.39614843  0.04246071  0.91560283    -0.78000
O454        O  0.40449129  0.14176072  0.90755899    -0.83200
C455        C  0.34276020  0.08728150  0.87229498     0.97800
C456        C  0.41082198  0.15459914  0.87454507     1.03700
O457        O  0.35639057  0.09230702  0.84009729    -0.78900
C458        C  0.38127302  0.04305576  0.94358673     1.02000
Fe459      Fe  0.14553988  0.07214748  0.87554878     1.65800
Fe460      Fe  0.20637141  0.10419134  0.92519860     1.73200
Fe461      Fe  0.20507477  0.10488242  0.82370868     1.54400
O462        O  0.17841335  0.06816517  0.79601112    -0.82600
O463        O  0.22874069  0.14476669  0.90908112    -0.80900
O464        O  0.14510753  0.04271778  0.83904821    -0.85100
O465        O  0.14101156  0.09244455  0.82666629    -0.80000
O466        O  0.22899545  0.08824687  0.83822201    -0.81800
O467        O  0.17898180  0.11318131  0.95310667    -0.84500
C468        C  0.15689163  0.11218203  0.80393050     0.96300
C469        C  0.15810245  0.04542699  0.80689260     1.03700
O470        O  0.18568717  0.09378244  0.87494849    -1.13500
O471        O  0.18618368  0.06478627  0.94725690    -0.75900
O472        O  0.14382206  0.04844808  0.92399784    -0.79400
O473        O  0.18270680  0.12249228  0.80444812    -0.80100
C474        C  0.16089993  0.04699542  0.94713137     0.95200
O475        O  0.14289827  0.09967117  0.91266766    -0.78000
O476        O  0.23663828  0.09682453  0.90331831    -0.83200
C477        C  0.24087420  0.15604157  0.87673060     0.97800
C478        C  0.24207538  0.08991218  0.86983349     1.03700
O479        O  0.23511183  0.14300150  0.84394800    -0.78900
C480        C  0.15654219  0.11193071  0.94361292     1.02000
C481        C  0.31423669  0.08215788  0.86984718    -0.07100
C482        C  0.30708639  0.09166720  0.83562421    -0.18200
C483        C  0.28305554  0.09298295  0.83397099     0.10100
C484        C  0.26533044  0.08473105  0.86744776    -0.07000
C485        C  0.27152854  0.07366580  0.90079991    -0.18200
C486        C  0.29538540  0.07176837  0.90209159     0.10200
S487        S  0.27814397  0.10856699  0.79005668    -0.33200
S488        S  0.30032948  0.05592109  0.94570953    -0.33200
H489        H  0.31189301  0.04261545  0.92440383     0.28200
H490        H  0.25448467  0.08422579  0.77841291     0.28200
H491        H  0.32106229  0.09970804  0.81050392     0.18800
H492        H  0.25780194  0.06668473  0.92627980     0.18800
C493        C  0.31566086  0.23394498  0.88254978    -0.07100
C494        C  0.30101402  0.22531177  0.84635947    -0.18200
C495        C  0.27536448  0.20137779  0.84403586     0.10100
C496        C  0.26417782  0.18471223  0.87835051    -0.07000
C497        C  0.27776141  0.19437280  0.91503326    -0.18200
C498        C  0.30291464  0.21871199  0.91771406     0.10200
S499        S  0.25807273  0.19352094  0.79645574    -0.33200
S500        S  0.31806206  0.22766034  0.96675171    -0.33200
H501        H  0.32004971  0.25359865  0.96611944     0.28200
H502        H  0.23170719  0.18282478  0.81308810     0.28200
H503        H  0.30974624  0.23709998  0.81930392     0.18800
H504        H  0.26937142  0.18224481  0.94191879     0.18800
C505        C  0.41677247  0.23385500  0.87109273    -0.07100
C506        C  0.42634564  0.22630062  0.90495022    -0.18200
C507        C  0.42688084  0.20162485  0.90611937     0.10100
C508        C  0.41683085  0.18347414  0.87318194    -0.07000
C509        C  0.40896530  0.19188759  0.83860373    -0.18200
C510        C  0.40888913  0.21659281  0.83704348     0.10200
S511        S  0.44072779  0.19466032  0.95026338    -0.33200
S512        S  0.39533881  0.22289293  0.79204186    -0.33200
H513        H  0.42018286  0.24676943  0.78279209     0.28200
H514        H  0.45207669  0.18081892  0.92983620     0.28200
H515        H  0.43304057  0.23948141  0.93097741     0.18800
H516        H  0.40122858  0.17836349  0.81300494     0.18800
C517        C  0.47283274  0.12453013  0.97511247    -0.07100
C518        C  0.99870406  0.13847800  0.95956307    -0.18200
C519        C  0.02172534  0.14843559  0.98424626     0.10100
C520        C  0.01936680  0.14718774  0.52445580    -0.07000
C521        C  0.49357285  0.13101936  0.54189533    -0.18200
C522        C  0.47053090  0.11912781  0.51721186     0.10200
S523        S  0.05468516  0.16447799  0.95967736    -0.33200
S524        S  0.43852195  0.09358205  0.53882721    -0.33200
H525        H  0.42484754  0.11260691  0.02486596     0.28200
H526        H  0.06732576  0.15874257  0.47960478     0.28200
H527        H  0.00148914  0.14081267  0.92746861     0.18800
H528        H  0.49113697  0.12526627  0.57316801     0.18800
C529        C  0.01926447  0.14426633  0.72177122    -0.07100
C530        C  0.00718832  0.15990444  0.73262435    -0.18200
C531        C  0.98637401  0.15047253  0.76139359     0.10100
C532        C  0.47822557  0.12519422  0.78223853    -0.07000
C533        C  0.48916830  0.10892400  0.76952007    -0.18200
C534        C  0.50975913  0.11832335  0.74058676     0.10200
S535        S  0.97310836  0.17274977  0.77424563    -0.33200
S536        S  0.52307226  0.09618087  0.72754085    -0.33200
H537        H  0.01467561  0.09111976  0.69205949     0.28200
H538        H  0.47246858  0.16559498  0.82308785     0.28200
H539        H  0.01419008  0.17974401  0.71882937     0.18800
H540        H  0.48105153  0.08836731  0.78134803     0.18800
C541        C  0.14487748  0.12314407  0.77499726    -0.07100
C542        C  0.15786396  0.15157741  0.76871778    -0.18200
C543        C  0.14765150  0.16293492  0.74104656     0.10100
C544        C  0.12336260  0.14559338  0.71953165    -0.07000
C545        C  0.11065017  0.11711512  0.72549646    -0.18200
C546        C  0.12129040  0.10574553  0.75231216     0.10200
S547        S  0.16732513  0.19952138  0.73346422    -0.33200
S548        S  0.10456043  0.06883582  0.75459060    -0.33200
H549        H  0.12906218  0.06798209  0.75649036     0.28200
H550        H  0.16363863  0.19807993  0.69175773     0.28200
H551        H  0.17631872  0.16508604  0.78526959     0.18800
H552        H  0.09218741  0.10347814  0.70906692     0.18800
C553        C  0.14504157  0.12413756  0.97060745    -0.07100
C554        C  0.11764587  0.10780867  0.98227025    -0.18200
C555        C  0.10625674  0.11971703  0.50606772     0.10100
C556        C  0.12225318  0.14621365  0.52267090    -0.07000
C557        C  0.14986920  0.16228014  0.51136044    -0.18200
C558        C  0.16062191  0.15099739  0.98583875     0.10200
S559        S  0.07005121  0.09797042  0.51546533    -0.33200
S560        S  0.19559075  0.17406262  0.97099350    -0.33200
H561        H  0.19231212  0.16460952  0.93136360     0.28200
H562        H  0.06394478  0.11930036  0.51443156     0.28200
H563        H  0.10562720  0.08716479  0.97058414     0.18800
H564        H  0.16216855  0.18276744  0.52339142     0.18800
C565        C  0.12308284  0.47457451  0.52546731    -0.07100
C566        C  0.14497874  0.00492683  0.54321786    -0.18200
C567        C  0.15637468  0.02773201  0.51775867     0.10100
C568        C  0.15055570  0.02371691  0.97526888    -0.07000
C569        C  0.11735312  0.50338074  0.97780108    -0.18200
C570        C  0.10536866  0.48058020  0.00309705     0.10200
S571        S  0.17687719  0.06101958  0.54028116    -0.33200
S572        S  0.06843925  0.46115629  0.00486198    -0.33200
H573        H  0.06666118  0.43537894  0.00739364     0.28200
H574        H  0.16916468  0.07409989  0.01627682     0.28200
H575        H  0.14923586  0.00795468  0.57482684     0.18800
H576        H  0.10401709  0.50879933  0.96179962     0.18800
C577        C  0.14874364  0.02165172  0.77996985    -0.07100
C578        C  0.15080266  0.02651334  0.73861551    -0.18200
C579        C  0.14073469  0.00493144  0.71131741     0.10100
C580        C  0.12756681  0.47663651  0.72305231    -0.07000
C581        C  0.12454884  0.47172122  0.76442488    -0.18200
C582        C  0.13568493  0.49332259  0.79189560     0.10200
S583        S  0.14537389  0.01364950  0.65902118    -0.33200
S584        S  0.13207144  0.48453478  0.84428621    -0.33200
H585        H  0.16097808  0.00826009  0.85607558     0.28200
H586        H  0.15280778  0.48889560  0.64745688     0.28200
H587        H  0.15998460  0.04731741  0.72735642     0.18800
H588        H  0.11310326  0.45085609  0.77549241     0.18800
C589        C  0.47685254  0.35480837  0.78097126    -0.07100
C590        C  0.48890929  0.38256638  0.77016460    -0.18200
C591        C  0.01256156  0.39141714  0.74647007     0.10100
C592        C  0.02162415  0.37471954  0.72807693    -0.07000
C593        C  0.00816788  0.34661590  0.73737092    -0.18200
C594        C  0.48732437  0.33878210  0.76448454     0.10200
S595        S  0.03006512  0.42821187  0.74081166    -0.33200
S596        S  0.47438440  0.30336803  0.77781334    -0.33200
H597        H  0.46912471  0.30638730  0.81804814     0.28200
H598        H  0.05658001  0.43163868  0.74180786     0.28200
H599        H  0.48115809  0.39509719  0.78277931     0.18800
H600        H  0.01528718  0.33369757  0.72423671     0.18800
C601        C  0.01840961  0.37347554  0.53099917    -0.07100
C602        C  0.51396340  0.35059897  0.51303217    -0.18200
C603        C  0.49283493  0.33909444  0.48474882     0.10100
C604        C  0.47787888  0.35293841  0.97434950    -0.07000
C605        C  0.97872806  0.37194073  0.99668962    -0.18200
C606        C  0.99930067  0.38294216  0.02565084     0.10200
S607        S  0.48441277  0.30617572  0.46423666    -0.33200
S608        S  0.00244173  0.41159934  0.05383037    -0.33200
H609        H  0.99801966  0.40104944  0.58716317     0.28200
H610        H  0.48037288  0.31569765  0.92069637     0.28200
H611        H  0.52361365  0.33895944  0.52218739     0.18800
H612        H  0.96542631  0.38057506  0.99305344     0.18800
C613        C  0.07686182  0.31292515  0.62431344    -0.07100
C614        C  0.07677310  0.30107060  0.58733242    -0.18200
C615        C  0.07633795  0.27608483  0.58485032     0.10100
C616        C  0.07701802  0.26263392  0.62039181    -0.07000
C617        C  0.07414250  0.27302022  0.65718399    -0.18200
C618        C  0.07365055  0.29763917  0.65964263     0.10200
S619        S  0.07599109  0.26353438  0.53516129    -0.33200
S620        S  0.06915239  0.30896470  0.70827618    -0.33200
H621        H  0.06591535  0.28632629  0.73052490     0.28200
H622        H  0.05452390  0.23686613  0.54375080     0.28200
H623        H  0.07810721  0.31182475  0.55978101     0.18800
H624        H  0.07332238  0.26232760  0.68450953     0.18800
C625        C  0.34552666  0.47482431  0.72497814    -0.07100
C626        C  0.36098444  0.00335879  0.70795058    -0.18200
C627        C  0.37115262  0.02599258  0.73343284     0.10100
C628        C  0.37368081  0.02249769  0.77478239    -0.07000
C629        C  0.34250676  0.49962928  0.78277864    -0.18200
C630        C  0.33053972  0.47645630  0.75806820     0.10200
S631        S  0.38252454  0.05901361  0.71091733    -0.33200
S632        S  0.29679546  0.44950779  0.77198649    -0.33200
H633        H  0.30435194  0.42915797  0.77221360     0.28200
H634        H  0.36130941  0.06170672  0.72856335     0.28200
H635        H  0.35897796  0.00620355  0.67651618     0.18800
H636        H  0.33111683  0.50068221  0.80820958     0.18800
C637        C  0.35068727  0.47620223  0.52896152    -0.07100
C638        C  0.35084332  0.47036533  0.98646057    -0.18200
C639        C  0.36109520  0.49168325  0.95837049     0.10100
C640        C  0.36691296  0.01889710  0.97003108    -0.07000
C641        C  0.36912622  0.02509602  0.51354863    -0.18200
C642        C  0.35842948  0.00316820  0.54043347     0.10200
S643        S  0.35864525  0.48219497  0.90641459    -0.33200
S644        S  0.36203077  0.01125625  0.59287964    -0.33200
H645        H  0.33639383  0.48970624  0.60326652     0.28200
H646        H  0.34717179  0.00540335  0.89112018     0.28200
H647        H  0.34282716  0.44949675  0.97607247     0.18800
H648        H  0.37950102  0.04585758  0.52504001     0.18800
C649        C  0.35028404  0.37158574  0.53059969    -0.07100
C650        C  0.34267270  0.36822938  0.49015858    -0.18200
C651        C  0.35424267  0.35828858  0.46258215     0.10100
C652        C  0.37128811  0.34934917  0.97610050    -0.07000
C653        C  0.37587108  0.34915519  0.01734233    -0.18200
C654        C  0.36451347  0.35943089  0.04476647     0.10200
S655        S  0.34300759  0.35478143  0.41133693    -0.33200
S656        S  0.37164187  0.35830039  0.09708218    -0.33200
H657        H  0.35472925  0.35982566  0.61143859     0.28200
H658        H  0.34503852  0.33493078  0.90062621     0.28200
H659        H  0.32793404  0.37388042  0.47979228     0.18800
H660        H  0.38884112  0.34141829  0.02824399     0.18800
C661        C  0.37271274  0.35173734  0.77902728    -0.07100
C662        C  0.34474929  0.33649655  0.76932220    -0.18200
C663        C  0.33305381  0.34650281  0.74188909     0.10100
C664        C  0.34960264  0.37245202  0.72390347    -0.07000
C665        C  0.37752510  0.38749540  0.73339647    -0.18200
C666        C  0.38926367  0.37744016  0.76032164     0.10200
S667        S  0.29727044  0.32482014  0.73007633    -0.33200
S668        S  0.42575487  0.39798925  0.76795220    -0.33200
H669        H  0.43021797  0.37556614  0.76626690     0.28200
H670        H  0.30017188  0.33197734  0.68935430     0.28200
H671        H  0.33195662  0.31663243  0.78307759     0.18800
H672        H  0.39038641  0.40737005  0.71969307     0.18800
C673        C  0.18097438  0.41428954  0.62459550    -0.07100
C674        C  0.19037431  0.40959694  0.58804602    -0.18200
C675        C  0.21509746  0.40959501  0.58511810     0.10100
C676        C  0.23118207  0.41398249  0.61973169    -0.07000
C677        C  0.22283593  0.42053813  0.65567967    -0.18200
C678        C  0.19840475  0.42128216  0.65838341     0.10200
S679        S  0.22326500  0.40115593  0.53701923    -0.33200
S680        S  0.19092852  0.43101190  0.70600528    -0.33200
H681        H  0.18275102  0.44872098  0.68918363     0.28200
H682        H  0.24809948  0.42618471  0.53395322     0.28200
H683        H  0.17784877  0.40468993  0.56142673     0.18800
H684        H  0.23527967  0.42471687  0.68228681     0.18800
C685        C  0.23037294  0.31459732  0.62896031    -0.07100
C686        C  0.22275556  0.29824854  0.59441956    -0.18200
C687        C  0.19849665  0.27278599  0.59304815     0.10100
C688        C  0.18085048  0.26348531  0.62674463    -0.07000
C689        C  0.18948900  0.27901843  0.66203520    -0.18200
C690        C  0.21351035  0.30445573  0.66335476     0.10200
S691        S  0.19152768  0.25328858  0.54752085    -0.33200
S692        S  0.21943792  0.32403587  0.70860249    -0.33200
H693        H  0.22318910  0.34765187  0.68852273     0.28200
H694        H  0.17986060  0.22771847  0.56699480     0.28200
H695        H  0.23567951  0.30547182  0.56808945     0.18800
H696        H  0.17635886  0.27241436  0.68817509     0.18800
Fe697      Fe  0.35206419  0.92637954  0.12234828     1.65800
Fe698      Fe  0.29278087  0.89637505  0.17584330     1.73200
Fe699      Fe  0.29008621  0.89299340  0.07418631     1.54400
O700        O  0.31106333  0.93149964  0.04891307    -0.82600
O701        O  0.26274014  0.85814048  0.15793061    -0.80900
O702        O  0.35286912  0.95114784  0.07606492    -0.85100
O703        O  0.35434167  0.89938737  0.08304884    -0.80000
O704        O  0.26096520  0.90217260  0.09494328    -0.81800
O705        O  0.31468375  0.87871779  0.19652285    -0.84500
C706        C  0.33942446  0.88495958  0.05434577     0.96300
C707        C  0.33561541  0.95103528  0.05152420     1.03700
O708        O  0.31172039  0.90532092  0.12401619    -1.13500
O709        O  0.31991731  0.93307597  0.20268842    -0.75900
O710        O  0.35511638  0.95610965  0.16154006    -0.79400
O711        O  0.31603494  0.88203781  0.04697360    -0.80100
C712        C  0.34236507  0.95426356  0.19366365     0.95200
O713        O  0.35596608  0.90413270  0.16875889    -0.78000
O714        O  0.26893542  0.91311946  0.15939719    -0.83200
C715        C  0.25497358  0.84362260  0.12665367     0.97800
C716        C  0.25610091  0.91095784  0.12711998     1.03700
O717        O  0.26637556  0.85286677  0.09311125    -0.78900
C718        C  0.33975733  0.88569040  0.19300287     1.02000
Fe719      Fe  0.07548807  0.93000234  0.12665817     1.65800
Fe720      Fe  0.10130420  0.89585517  0.17858657     1.73200
Fe721      Fe  0.10310550  0.89648954  0.07679270     1.54400
O722        O  0.06389874  0.88075020  0.05401886    -0.82600
O723        O  0.13911367  0.90273171  0.15976230    -0.80900
O724        O  0.04973076  0.90798411  0.08010568    -0.85100
O725        O  0.10364952  0.95812449  0.08723321    -0.80000
O726        O  0.09304536  0.85762095  0.09704243    -0.81800
O727        O  0.12033087  0.93495737  0.20164740    -0.84500
C728        C  0.11492891  0.95530728  0.05623289     0.96300
C729        C  0.04709773  0.88964008  0.05552025     1.03700
O730        O  0.09320805  0.90744464  0.12734102    -1.13500
O731        O  0.06484889  0.88725411  0.20477565    -0.75900
O732        O  0.04509592  0.90481027  0.16653739    -0.79400
O733        O  0.11504906  0.93336764  0.04824441    -0.80100
C734        C  0.04512793  0.89122509  0.19682861     0.95200
O735        O  0.09931882  0.95508629  0.17247879    -0.78000
O736        O  0.08302520  0.85545783  0.16161801    -0.83200
C737        C  0.15340991  0.91031483  0.12812225     0.97800
C738        C  0.08534418  0.84456683  0.12987547     1.03700
O739        O  0.14338268  0.91179489  0.09476474    -0.78900
C740        C  0.11602604  0.95489046  0.19770191     1.02000
Fe741      Fe  0.07012447  0.64529359  0.12283645     1.65800
Fe742      Fe  0.10124536  0.70698722  0.07305614     1.73200
Fe743      Fe  0.10115850  0.70511384  0.17554491     1.54400
O744        O  0.06295164  0.68187272  0.20068592    -0.82600
O745        O  0.14104756  0.73394498  0.09124737    -0.80900
O746        O  0.04405190  0.64211914  0.16842916    -0.85100
O747        O  0.09618260  0.64189114  0.16283821    -0.80000
O748        O  0.08941695  0.73294200  0.15852126    -0.81800
O749        O  0.11538113  0.68316212  0.04694962    -0.84500
C750        C  0.11128938  0.65655984  0.19129819     0.96300
C751        C  0.04377060  0.65740301  0.19597044     1.03700
O752        O  0.09083254  0.68580402  0.12373051    -1.13500
O753        O  0.06294528  0.68283453  0.04790478    -0.75900
O754        O  0.04187020  0.64377106  0.08242366    -0.79400
O755        O  0.11445930  0.67996183  0.19949799    -0.80100
C756        C  0.04261795  0.65902847  0.05391761     0.95200
O757        O  0.09284998  0.64241629  0.07697135    -0.78000
O758        O  0.08852553  0.73384346  0.09216921    -0.83200
C759        C  0.15298044  0.74103676  0.12488871     0.97800
C760        C  0.08563269  0.74223766  0.12602728     1.03700
O761        O  0.14067899  0.73092991  0.15758690    -0.78900
C762        C  0.10895116  0.65820470  0.05024180     1.02000
Fe763      Fe  0.42345357  0.85142527  0.37728766     1.65800
Fe764      Fe  0.39251095  0.79186224  0.32480559     1.73200
Fe765      Fe  0.39493358  0.79070930  0.42658047     1.54400
O766        O  0.43502762  0.81156969  0.44580442    -0.82600
O767        O  0.35432967  0.76220879  0.34616220    -0.80900
O768        O  0.44822956  0.85386727  0.42461837    -0.85100
O769        O  0.39539513  0.85221730  0.41545702    -0.80000
O770        O  0.40211439  0.76060630  0.40398832    -0.81800
O771        O  0.37488900  0.81397495  0.30439263    -0.84500
C772        C  0.38483527  0.83879374  0.44724933     0.96300
C773        C  0.45176607  0.83715650  0.44579363     1.03700
O774        O  0.40361590  0.81128083  0.37613130    -1.13500
O775        O  0.42940036  0.81875470  0.29720352    -0.75900
O776        O  0.45300616  0.85391968  0.33867626    -0.79400
O777        O  0.38604092  0.81756795  0.45679520    -0.80100
C778        C  0.45115169  0.84061081  0.30708974     0.95200
O779        O  0.40187112  0.85514591  0.33027210    -0.78000
O780        O  0.40904103  0.76769933  0.33870616    -0.83200
C781        C  0.34215562  0.75600292  0.37985577     0.97800
C782        C  0.40821273  0.75486807  0.37018030     1.03700
O783        O  0.35415656  0.76787616  0.41193086    -0.78900
C784        C  0.38364979  0.83953916  0.30564670     1.02000
Fe785      Fe  0.42304428  0.57179425  0.37462953     1.65800
Fe786      Fe  0.39315953  0.60191700  0.42636383     1.73200
Fe787      Fe  0.39110220  0.60057835  0.32471588     1.52000
O788        O  0.42755873  0.61079954  0.29572441    -0.82600
O789        O  0.35256500  0.58410118  0.41162143    -0.80900
O790        O  0.45194713  0.59964056  0.33612813    -0.85100
O791        O  0.40113364  0.54684359  0.32685294    -0.80000
O792        O  0.40803156  0.64109243  0.33986507    -0.81800
O793        O  0.38414613  0.56543369  0.45455169    -0.84500
C794        C  0.38174432  0.54417174  0.30442941     0.96300
C795        C  0.44949966  0.61086904  0.30473564     1.03700
O796        O  0.40247939  0.59146048  0.37523813    -1.13500
O797        O  0.43273742  0.62058364  0.44655645    -0.75900
O798        O  0.44817668  0.59407830  0.42187556    -0.79400
O799        O  0.37296119  0.56092473  0.30437916    -0.80100
C800        C  0.45020204  0.61273206  0.44534483     0.95200
O801        O  0.39596578  0.54204131  0.41334544    -0.78000
O802        O  0.40076946  0.63990301  0.40539706    -0.83200
C803        C  0.34065114  0.58446768  0.37983330     0.97800
C804        C  0.40771499  0.65262019  0.37220386     1.03700
O805        O  0.35313105  0.59182308  0.34651900    -0.78900
C806        C  0.38448091  0.54373064  0.44502734     1.02000
Fe807      Fe  0.14420249  0.57019636  0.37227530     1.65800
Fe808      Fe  0.20386153  0.60191463  0.42538891     1.73200
Fe809      Fe  0.20578320  0.60258584  0.32288702     1.54400
O810        O  0.18175580  0.56472626  0.29621154    -0.82600
O811        O  0.22973824  0.64166854  0.40820598    -0.80900
O812        O  0.14338486  0.54220714  0.33191383    -0.85100
O813        O  0.14123304  0.59334512  0.32654742    -0.80000
O814        O  0.23171160  0.58888464  0.34175467    -0.81800
O815        O  0.17862002  0.61500662  0.44904132    -0.84500
C816        C  0.15714341  0.61039636  0.30064135     0.96300
C817        C  0.15884078  0.54345547  0.30344815     1.03700
O818        O  0.18460492  0.59162728  0.37347237    -1.13500
O819        O  0.18092634  0.56363543  0.45017549    -0.75900
O820        O  0.14147773  0.54376242  0.41736649    -0.79400
O821        O  0.18229447  0.61746741  0.29787022    -0.80100
C822        C  0.15707859  0.54363836  0.44463744     0.95200
O823        O  0.14032776  0.59572539  0.41270335    -0.78000
O824        O  0.23127299  0.58993086  0.40810415    -0.83200
C825        C  0.24000903  0.65404838  0.37563717     0.97800
C826        C  0.23979451  0.58540849  0.37547612     1.03700
O827        O  0.23307325  0.64198422  0.34210735    -0.78900
C828        C  0.15502608  0.61125172  0.44081437     1.02000
C829        C  0.31153624  0.57754696  0.38152347    -0.07100
C830        C  0.29660572  0.57120942  0.34564358    -0.18200
C831        C  0.27142373  0.57042603  0.34349615     0.10100
C832        C  0.26147608  0.57772457  0.37747543    -0.07000
C833        C  0.27481754  0.58088611  0.41423094    -0.18200
C834        C  0.29922196  0.58030487  0.41685163     0.10200
S835        S  0.25331300  0.55997258  0.29661713    -0.33200
S836        S  0.31423265  0.58540653  0.46588775    -0.33200
H837        H  0.31620262  0.56146894  0.46395034     0.28200
H838        H  0.22727064  0.54489370  0.31449654     0.28200
H839        H  0.30488397  0.56741714  0.31872268     0.18800
H840        H  0.26695388  0.58514881  0.44118338     0.18800
C841        C  0.31330367  0.73300980  0.38172003    -0.07100
C842        C  0.29738203  0.72535996  0.34665204    -0.18200
C843        C  0.27201161  0.70101304  0.34462786     0.10100
C844        C  0.26263197  0.68303619  0.37785500    -0.07000
C845        C  0.27743535  0.69182429  0.41377716    -0.18200
C846        C  0.30223052  0.71646435  0.41629800     0.10200
S847        S  0.25268608  0.69431509  0.29901472    -0.33200
S848        S  0.31958828  0.72378743  0.46376659    -0.33200
H849        H  0.31991569  0.74881376  0.46819264     0.28200
H850        H  0.22700164  0.68190270  0.31822776     0.28200
H851        H  0.30494985  0.73822372  0.32028849     0.18800
H852        H  0.27044247  0.67872366  0.43995373     0.18800
C853        C  0.41323352  0.73144376  0.36744030    -0.07100
C854        C  0.42284541  0.72413105  0.40142680    -0.18200
C855        C  0.42357245  0.69962790  0.40283692     0.10100
C856        C  0.41354306  0.68135010  0.37011208    -0.07000
C857        C  0.40586641  0.68961059  0.33517644    -0.18200
C858        C  0.40575321  0.71430612  0.33330783     0.10200
S859        S  0.43774936  0.69307393  0.44695757    -0.33200
S860        S  0.39278905  0.72085043  0.28790683    -0.33200
H861        H  0.41761514  0.74491573  0.27951963     0.28200
H862        H  0.44917126  0.67929788  0.42654271     0.28200
H863        H  0.42945711  0.73739741  0.42736811     0.18800
H864        H  0.39837582  0.67601685  0.30962250     0.18800
C865        C  0.47361354  0.62531820  0.47292665    -0.07100
C866        C  0.00027996  0.64032956  0.45836413    -0.18200
C867        C  0.02327869  0.65260669  0.48320375     0.10100
C868        C  0.01899562  0.64788662  0.02601850    -0.07000
C869        C  0.49202709  0.63250762  0.03877648    -0.18200
C870        C  0.46902509  0.62208027  0.01400054     0.10200
S871        S  0.05630243  0.67155733  0.45926260    -0.33200
S872        S  0.43582059  0.60176162  0.03676686    -0.33200
H873        H  0.42994107  0.62773577  0.52004767     0.28200
H874        H  0.06860296  0.66708996  0.97940312     0.28200
H875        H  0.00295243  0.64322795  0.42631939     0.18800
H876        H  0.48913157  0.62863636  0.07062490     0.18800
C877        C  0.02043162  0.64617211  0.22426645    -0.07100
C878        C  0.01134094  0.66353920  0.23949126    -0.18200
C879        C  0.98993533  0.65404273  0.26741961     0.10100
C880        C  0.47269337  0.62299353  0.27648019    -0.07000
C881        C  0.48558609  0.60781208  0.26760768    -0.18200
C882        C  0.50649076  0.61695270  0.23922943     0.10200
S883        S  0.98088817  0.67839777  0.28665230    -0.33200
S884        S  0.52244162  0.59648296  0.23131003    -0.33200
H885        H  0.00837726  0.59199307  0.18513669     0.28200
H886        H  0.46340439  0.66370892  0.30905159     0.28200
H887        H  0.02108918  0.68472368  0.22975261     0.18800
H888        H  0.47897779  0.58835729  0.28241822     0.18800
C889        C  0.14569265  0.62191407  0.27168591    -0.07100
C890        C  0.16110877  0.64975426  0.26110875    -0.18200
C891        C  0.15099554  0.66149516  0.23387861     0.10100
C892        C  0.12457607  0.64520338  0.21715659    -0.07000
C893        C  0.10953659  0.61724941  0.22702311    -0.18200
C894        C  0.11984668  0.60541450  0.25349704     0.10200
S895        S  0.17317396  0.69702540  0.22077342    -0.33200
S896        S  0.09938121  0.56890178  0.26145693    -0.33200
H897        H  0.12174553  0.56430018  0.26123869     0.28200
H898        H  0.16487630  0.69397079  0.18054870     0.28200
H899        H  0.18122230  0.66247750  0.27413302     0.18800
H900        H  0.08937421  0.60444179  0.21417800     0.18800
C901        C  0.14357091  0.62449447  0.46619623    -0.07100
C902        C  0.11628419  0.60857408  0.47876832    -0.18200
C903        C  0.10328240  0.62127521  0.00218949     0.10100
C904        C  0.12016146  0.64670675  0.02121557    -0.07000
C905        C  0.14827515  0.66123468  0.01255512    -0.18200
C906        C  0.15927887  0.65185687  0.47979823     0.10200
S907        S  0.06654031  0.60187966  0.00844820    -0.33200
S908        S  0.19388569  0.67477968  0.46322114    -0.33200
H909        H  0.19002520  0.66407129  0.42427161     0.28200
H910        H  0.06299859  0.62482320  0.01109624     0.28200
H911        H  0.10401434  0.58765581  0.46826442     0.18800
H912        H  0.16124749  0.68094385  0.02653149     0.18800
C913        C  0.12760935  0.97824895  0.02758983    -0.07100
C914        C  0.15059224  0.48823436  0.01946612    -0.18200
C915        C  0.16268899  0.51114944  0.99399965     0.10100
C916        C  0.14634718  0.51967618  0.47203029    -0.07000
C917        C  0.13395888  0.99743965  0.46155961    -0.18200
C918        C  0.12269405  0.97464021  0.48692761     0.10200
S919        S  0.19940857  0.52856573  0.98890228    -0.33200
S920        S  0.10124125  0.94158654  0.46419897    -0.33200
H921        H  0.08261018  0.93045563  0.49599009     0.28200
H922        H  0.20474845  0.55123584  0.50538266     0.28200
H923        H  0.16356540  0.48243899  0.03571896     0.18800
H924        H  0.12940298  0.99444432  0.42997656     0.18800
C925        C  0.14925730  0.51949812  0.27659329    -0.07100
C926        C  0.15363725  0.52415513  0.23526323    -0.18200
C927        C  0.14275013  0.50239275  0.20796997     0.10100
C928        C  0.13013097  0.97843044  0.22481129    -0.07000
C929        C  0.12845361  0.97333994  0.26601702    -0.18200
C930        C  0.13876295  0.99485485  0.29357596     0.10200
S931        S  0.15056717  0.51060986  0.15575820    -0.33200
S932        S  0.13680589  0.98589542  0.34565302    -0.33200
H933        H  0.15537968  0.50508229  0.35515387     0.28200
H934        H  0.15122175  0.99184095  0.14707042     0.28200
H935        H  0.16522157  0.54495962  0.22402610     0.18800
H936        H  0.11859546  0.95239190  0.27685379     0.18800
C937        C  0.47509562  0.85161807  0.28010300    -0.07100
C938        C  0.48937786  0.87990445  0.27240398    -0.18200
C939        C  0.00856711  0.89422617  0.23710952     0.10100
C940        C  0.02156488  0.87954386  0.22468974    -0.07000
C941        C  0.01302650  0.85357606  0.24136434    -0.18200
C942        C  0.48372686  0.83474881  0.26127121     0.10200
S943        S  0.01956317  0.92880116  0.22112003    -0.33200
S944        S  0.46860465  0.79866993  0.27187513    -0.33200
H945        H  0.46429328  0.80102041  0.31275870     0.28200
H946        H  0.04774971  0.93778983  0.22357587     0.28200
H947        H  0.48315853  0.89309175  0.28707648     0.18800
H948        H  0.02333951  0.84243356  0.23297147     0.18800
C949        C  0.02375868  0.87848307  0.02697970    -0.07100
C950        C  0.51437551  0.85057858  0.00599858    -0.18200
C951        C  0.49335347  0.83902910  0.97748563     0.10100
C952        C  0.47562268  0.84857195  0.47293019    -0.07000
C953        C  0.99331249  0.88309559  0.48125781    -0.18200
C954        C  0.01540336  0.89471606  0.50799634     0.10200
S955        S  0.49052574  0.81098669  0.94783126    -0.33200
S956        S  0.03207929  0.93117557  0.51775843    -0.33200
H957        H  0.01427699  0.92278789  0.06455727     0.28200
H958        H  0.47879080  0.81321553  0.41612770     0.28200
H959        H  0.52775375  0.84203749  0.00945912     0.18800
H960        H  0.98591148  0.89584854  0.46841312     0.18800
C961        C  0.08068895  0.81617594  0.13165793    -0.07100
C962        C  0.07053979  0.79921711  0.09782970    -0.18200
C963        C  0.06959600  0.77384142  0.09606867     0.10100
C964        C  0.07992030  0.76539223  0.12837930    -0.07000
C965        C  0.08836320  0.78160671  0.16309789    -0.18200
C966        C  0.08912782  0.80681465  0.16510724     0.10200
S967        S  0.05478796  0.75332322  0.05195519    -0.33200
S968        S  0.10371933  0.82780863  0.20922870    -0.33200
H969        H  0.11174026  0.81090271  0.22900624     0.28200
H970        H  0.04215368  0.72815902  0.07262073     0.28200
H971        H  0.06357337  0.80594568  0.07230811     0.18800
H972        H  0.09606295  0.77532392  0.18816917     0.18800
C973        C  0.35428941  0.97741831  0.22221027    -0.07100
C974        C  0.37327776  0.49576581  0.22038671    -0.18200
C975        C  0.38530653  0.51846552  0.24571646     0.10100
C976        C  0.36953985  0.52114975  0.27615745    -0.07000
C977        C  0.36486663  0.99561635  0.28987503    -0.18200
C978        C  0.35438222  0.97318020  0.26391407     0.10200
S979        S  0.42076470  0.54370289  0.23701345    -0.33200
S980        S  0.34294019  0.93989228  0.28581205    -0.33200
H981        H  0.35373783  0.93085005  0.25532728     0.28200
H982        H  0.41776968  0.56644254  0.24601248     0.28200
H983        H  0.38595361  0.49427393  0.19727001     0.18800
H984        H  0.36464039  0.99204983  0.32175882     0.18800
C985        C  0.34478940  0.97453289  0.02426623    -0.07100
C986        C  0.34274462  0.97150056  0.48447227    -0.18200
C987        C  0.35356747  0.99348142  0.45751883     0.10100
C988        C  0.37171718  0.51991290  0.47282963    -0.07000
C989        C  0.37174622  0.52413609  0.01258898    -0.18200
C990        C  0.36109482  0.50276387  0.04057089     0.10200
S991        S  0.34891281  0.98548129  0.40498458    -0.33200
S992        S  0.36053470  0.51170270  0.09219100    -0.33200
H993        H  0.33419942  0.98583468  0.10193827     0.28200
H994        H  0.34848850  0.50199755  0.39551781     0.28200
H995        H  0.33270877  0.95070939  0.47306535     0.18800
H996        H  0.37991695  0.54496473  0.02320181     0.18800
C997        C  0.35002770  0.87180458  0.02716439    -0.07100
C998        C  0.34680821  0.87365435  0.98589100    -0.18200
C999        C  0.35758936  0.86297871  0.95821141     0.10100
C1000       C  0.37124471  0.84869478  0.47479023    -0.07000
C1001       C  0.37660718  0.84944986  0.51588027    -0.18200
C1002       C  0.36594779  0.86055829  0.54312066     0.10200
S1003       S  0.35089055  0.86539939  0.90608574    -0.33200
S1004       S  0.37349190  0.85969600  0.59533911    -0.33200
H1005       H  0.34193938  0.84946568  0.10477348     0.28200
H1006       H  0.34284803  0.83177506  0.40129750     0.28200
H1007       H  0.33594991  0.88374293  0.97503424     0.18800
H1008       H  0.38957134  0.84170012  0.52681076     0.18800
C1009       C  0.37275371  0.85167463  0.27657972    -0.07100
C1010       C  0.34713621  0.83461801  0.25862161    -0.18200
C1011       C  0.33634001  0.84476251  0.22998792     0.10100
C1012       C  0.35097917  0.87286362  0.21969600    -0.07000
C1013       C  0.37661881  0.88982750  0.23712478    -0.18200
C1014       C  0.38784198  0.87962122  0.26474069     0.10200
S1015       S  0.30440443  0.82059158  0.20659624    -0.33200
S1016       S  0.42201555  0.90336884  0.28193686    -0.33200
H1017       H  0.43200930  0.88536566  0.27420327     0.28200
H1018       H  0.31096268  0.83336262  0.16886856     0.28200
H1019       H  0.33551240  0.81308401  0.26651368     0.18800
H1020       H  0.38808196  0.91137783  0.22920499     0.18800
C1021       C  0.18236895  0.91614291  0.12977687    -0.07100
C1022       C  0.19694089  0.92066723  0.09375255    -0.18200
C1023       C  0.22237331  0.92187763  0.09250413     0.10100
C1024       C  0.23319250  0.91694180  0.12769667    -0.07000
C1025       C  0.21983070  0.91467392  0.16411813    -0.18200
C1026       C  0.19521618  0.91506701  0.16577601     0.10200
S1027       S  0.24002376  0.93022070  0.04512240    -0.33200
S1028       S  0.18172320  0.91409595  0.21502457    -0.33200
H1029       H  0.17588402  0.93517359  0.20675693     0.28200
H1030       H  0.26631874  0.94580117  0.06194517     0.28200
H1031       H  0.18834796  0.92289872  0.06599572     0.18800
H1032       H  0.22821328  0.91183564  0.19168596     0.18800
C1033       C  0.23080274  0.81546245  0.12920328    -0.07100
C1034       C  0.22560039  0.79665651  0.09799071    -0.18200
C1035       C  0.20130239  0.77111120  0.09681681     0.10100
C1036       C  0.18152541  0.76415975  0.12730686    -0.07000
C1037       C  0.18771561  0.78196868  0.15982947    -0.18200
C1038       C  0.21150306  0.80745503  0.16088550     0.10200
S1039       S  0.19695269  0.74827144  0.05617734    -0.33200
S1040       S  0.21384029  0.82942861  0.20175086    -0.33200
H1041       H  0.21570213  0.85024786  0.17632822     0.28200
H1042       H  0.18117849  0.72402273  0.07819063     0.28200
H1043       H  0.24031662  0.80202395  0.07395220     0.18800
H1044       H  0.17277363  0.77702238  0.18345031     0.18800
Fe1045     Fe  0.35207524  0.92697485  0.62297570     1.65800
Fe1046     Fe  0.29277440  0.89602812  0.67637892     1.73200
Fe1047     Fe  0.29026124  0.89399873  0.57454676     1.54400
O1048       O  0.31175040  0.93257971  0.54946827    -0.82600
O1049       O  0.26244594  0.85808682  0.65797007    -0.80900
O1050       O  0.35323114  0.95224025  0.57738753    -0.85100
O1051       O  0.35456159  0.90042471  0.58330576    -0.80000
O1052       O  0.26165583  0.90386218  0.59563248    -0.81800
O1053       O  0.31469619  0.87814380  0.69592728    -0.84500
C1054       C  0.33937403  0.88537383  0.55529011     0.96300
C1055       C  0.33617936  0.95225148  0.55265884     1.03700
O1056       O  0.31172766  0.90569198  0.62449694    -1.13500
O1057       O  0.31983798  0.93233733  0.70402091    -0.75900
O1058       O  0.35452496  0.95617925  0.66234924    -0.79400
O1059       O  0.31590976  0.88234779  0.54794346    -0.80100
C1060       C  0.34179258  0.95390701  0.69458424     0.95200
O1061       O  0.35595466  0.90433060  0.66868822    -0.78000
O1062       O  0.26905531  0.91298494  0.66078375    -0.83200
C1063       C  0.25430005  0.84427588  0.62606865     0.97800
C1064       C  0.25658224  0.91177694  0.62851458     1.03700
O1065       O  0.26573024  0.85382558  0.59267200    -0.78900
C1066       C  0.33980971  0.88531406  0.69223758     1.02000
Fe1067     Fe  0.07448068  0.92882199  0.62651333     1.65800
Fe1068     Fe  0.10057399  0.89511736  0.67929971     1.73200
Fe1069     Fe  0.10400763  0.89667507  0.57727622     1.54400
O1070       O  0.06539529  0.88141624  0.55239103    -0.82600
O1071       O  0.13929671  0.90392744  0.66217338    -0.80900
O1072       O  0.04891548  0.90629346  0.58024225    -0.85100
O1073       O  0.10212523  0.95713002  0.58651714    -0.80000
O1074       O  0.09342809  0.85753301  0.59638873    -0.81800
O1075       O  0.11770113  0.93378479  0.70363610    -0.84500
C1076       C  0.11514728  0.95525596  0.55690679     0.96300
C1077       C  0.04767666  0.88910745  0.55455130     1.03700
O1078       O  0.09292615  0.90684150  0.62766293    -1.13500
O1079       O  0.06302411  0.88444358  0.70388934    -0.75900
O1080       O  0.04426776  0.90356249  0.66683761    -0.79400
O1081       O  0.11687339  0.93405741  0.54997949    -0.80100
C1082       C  0.04360624  0.88895463  0.69625954     0.95200
O1083       O  0.09813828  0.95441982  0.67188603    -0.78000
O1084       O  0.08444259  0.85512058  0.66139405    -0.83200
C1085       C  0.15367391  0.91058508  0.63064330     0.97800
C1086       C  0.08648257  0.84445521  0.62922539     1.03700
O1087       O  0.14381406  0.91128884  0.59676811    -0.78900
C1088       C  0.11397197  0.95398900  0.69842829     1.02000
Fe1089     Fe  0.07041620  0.64464445  0.62158950     1.65800
Fe1090     Fe  0.10189311  0.70655561  0.57212856     1.73200
Fe1091     Fe  0.10040202  0.70436068  0.67457339     1.54400
O1092       O  0.06268422  0.67954418  0.70021352    -0.82600
O1093       O  0.14188549  0.73218383  0.59025599    -0.80900
O1094       O  0.04296320  0.64081765  0.66544207    -0.85100
O1095       O  0.09551754  0.64130939  0.66350711    -0.80000
O1096       O  0.08657435  0.73052680  0.65784548    -0.81800
O1097       O  0.11458304  0.68192923  0.54484673    -0.84500
C1098       C  0.11141412  0.65658674  0.69091898     0.96300
C1099       C  0.04306232  0.65548784  0.69417154     1.03700
O1100       O  0.09091598  0.68517428  0.62268856    -1.13500
O1101       O  0.06333506  0.68360932  0.54756591    -0.75900
O1102       O  0.04313991  0.64332762  0.57947373    -0.79400
O1103       O  0.11541702  0.68048525  0.69769936    -0.80100
C1104       C  0.04347367  0.65939450  0.55254499     0.95200
O1105       O  0.09449389  0.64213817  0.57749213    -0.78000
O1106       O  0.09093168  0.73462333  0.59176159    -0.83200
C1107       C  0.15264290  0.74115308  0.62421799     0.97800
C1108       C  0.08560527  0.74151731  0.62521195     1.03700
O1109       O  0.13946980  0.73225748  0.65667176    -0.78900
C1110       C  0.10938207  0.65743920  0.54941094     1.02000
Fe1111     Fe  0.42436304  0.85165877  0.87439760     1.65800
Fe1112     Fe  0.39262191  0.79125216  0.82399349     1.73200
Fe1113     Fe  0.39578121  0.79167498  0.92564338     1.54400
O1114       O  0.43607636  0.81281785  0.94416160    -0.82600
O1115       O  0.35447473  0.76206482  0.84642110    -0.80900
O1116       O  0.44902334  0.85494346  0.92245154    -0.85100
O1117       O  0.39644200  0.85329627  0.91214071    -0.80000
O1118       O  0.40245131  0.76098225  0.90412493    -0.81800
O1119       O  0.37499634  0.81313600  0.80298886    -0.84500
C1120       C  0.38599289  0.84031763  0.94434531     0.96300
C1121       C  0.45255153  0.83847497  0.94419606     1.03700
O1122       O  0.40420902  0.81147125  0.87459564    -1.13500
O1123       O  0.42941665  0.81763072  0.79538861    -0.75900
O1124       O  0.45369539  0.85303235  0.83624294    -0.79400
O1125       O  0.38724638  0.81920027  0.95450500    -0.80100
C1126       C  0.45143319  0.83941150  0.80478391     0.95200
O1127       O  0.40303508  0.85484618  0.82649420    -0.78000
O1128       O  0.40903777  0.76718677  0.83867132    -0.83200
C1129       C  0.34247421  0.75633020  0.88027999     0.97800
C1130       C  0.40801984  0.75455778  0.87043520     1.03700
O1131       O  0.35479020  0.76855195  0.91200626    -0.78900
C1132       C  0.38436510  0.83879937  0.80272560     1.02000
Fe1133     Fe  0.42312489  0.57213504  0.87392284     1.65800
Fe1134     Fe  0.39149677  0.60049991  0.92541706     1.73200
Fe1135     Fe  0.39062918  0.60026838  0.82397391     1.52000
O1136       O  0.42691456  0.61032595  0.79464090    -0.82600
O1137       O  0.35100435  0.58168152  0.90972856    -0.80900
O1138       O  0.45183187  0.60045633  0.83578027    -0.85100
O1139       O  0.40137203  0.54710435  0.82604895    -0.80000
O1140       O  0.40772480  0.64067396  0.83973698    -0.81800
O1141       O  0.38328136  0.56423957  0.95324368    -0.84500
C1142       C  0.38162300  0.54405169  0.80405893     0.96300
C1143       C  0.44911922  0.61107276  0.80394599     1.03700
O1144       O  0.40180869  0.59097181  0.87447143    -1.13500
O1145       O  0.43095479  0.62002715  0.94631473    -0.75900
O1146       O  0.44789120  0.59484230  0.92128839    -0.79400
O1147       O  0.37253690  0.56057138  0.80399907    -0.80100
C1148       C  0.44914531  0.61312797  0.94486728     0.95200
O1149       O  0.39649898  0.54187069  0.91237299    -0.78000
O1150       O  0.39815563  0.63817477  0.90470886    -0.83200
C1151       C  0.33972688  0.58358816  0.87821328     0.97800
C1152       C  0.40608777  0.65148823  0.87207327     1.03700
O1153       O  0.35272782  0.59194696  0.84544695    -0.78900
C1154       C  0.38448075  0.54299901  0.94379372     1.02000
Fe1155     Fe  0.14378444  0.57053307  0.87403689     1.65800
Fe1156     Fe  0.20356194  0.60200051  0.92691730     1.73200
Fe1157     Fe  0.20514523  0.60373068  0.82455860     1.54400
O1158       O  0.18092167  0.56627880  0.79706285    -0.82600
O1159       O  0.22898885  0.64240603  0.91072264    -0.80900
O1160       O  0.14347129  0.54246163  0.83428310    -0.85100
O1161       O  0.14035826  0.59302937  0.82759187    -0.80000
O1162       O  0.23093865  0.58966891  0.84191455    -0.81800
O1163       O  0.17757397  0.61378000  0.95186993    -0.84500
C1164       C  0.15638817  0.61095508  0.80270529     0.96300
C1165       C  0.15865089  0.54444197  0.80495660     1.03700
O1166       O  0.18416284  0.59216839  0.87516652    -1.13500
O1167       O  0.18117025  0.56305387  0.95045598    -0.75900
O1168       O  0.14103428  0.54441533  0.91971440    -0.79400
O1169       O  0.18180212  0.61909983  0.80105325    -0.80100
C1170       C  0.15688926  0.54353879  0.94589132     0.95200
O1171       O  0.14005348  0.59646443  0.91390625    -0.78000
O1172       O  0.23161816  0.59116821  0.90822733    -0.83200
C1173       C  0.23945000  0.65482942  0.87815274     0.97800
C1174       C  0.23968890  0.58654906  0.87523465     1.03700
O1175       O  0.23263067  0.64271984  0.84466987    -0.78900
C1176       C  0.15443323  0.61103057  0.94302675     1.02000
C1177       C  0.31088919  0.57748584  0.87973892    -0.07100
C1178       C  0.29631581  0.57232431  0.84368511    -0.18200
C1179       C  0.27147732  0.57226178  0.84172771     0.10100
C1180       C  0.26145668  0.57896287  0.87627454    -0.07000
C1181       C  0.27462848  0.58134046  0.91293875    -0.18200
C1182       C  0.29872411  0.58018652  0.91524100     0.10200
S1183       S  0.25401989  0.56359987  0.79425162    -0.33200
S1184       S  0.31370381  0.58468918  0.96419620    -0.33200
H1185       H  0.31442763  0.56008281  0.96214342     0.28200
H1186       H  0.22782252  0.54738631  0.81118934     0.28200
H1187       H  0.30462926  0.56889230  0.81650318     0.18800
H1188       H  0.26683872  0.58534601  0.94018174     0.18800
C1189       C  0.31340220  0.73358481  0.88264538    -0.07100
C1190       C  0.29767987  0.72530037  0.84742168    -0.18200
C1191       C  0.27211229  0.70117286  0.84588204     0.10100
C1192       C  0.26216748  0.68390965  0.87991350    -0.07000
C1193       C  0.27671468  0.69340936  0.91595151    -0.18200
C1194       C  0.30179054  0.71793722  0.91789937     0.10200
S1195       S  0.25340873  0.69379711  0.79955779    -0.33200
S1196       S  0.31868184  0.72635684  0.96576008    -0.33200
H1197       H  0.32003855  0.75199022  0.96749543     0.28200
H1198       H  0.22755411  0.68249864  0.81808157     0.28200
H1199       H  0.30557167  0.73748077  0.82047785     0.18800
H1200       H  0.26928254  0.68093769  0.94270690     0.18800
C1201       C  0.41209542  0.73054349  0.86807448    -0.07100
C1202       C  0.42099095  0.72274914  0.90233561    -0.18200
C1203       C  0.42116843  0.69797681  0.90379363     0.10100
C1204       C  0.41161549  0.68007724  0.87060525    -0.07000
C1205       C  0.40425779  0.68858845  0.83565927    -0.18200
C1206       C  0.40438108  0.71338649  0.83391958     0.10200
S1207       S  0.43394825  0.69056390  0.94868056    -0.33200
S1208       S  0.39131248  0.71999247  0.78866576    -0.33200
H1209       H  0.41647722  0.74343196  0.77942074     0.28200
H1210       H  0.44591110  0.67709322  0.92885548     0.28200
H1211       H  0.42747129  0.73585036  0.92845300     0.18800
H1212       H  0.39684426  0.67510878  0.80996922     0.18800
C1213       C  0.47250975  0.62641569  0.97237224    -0.07100
C1214       C  0.99899614  0.64224938  0.95967545    -0.18200
C1215       C  0.02184193  0.65489509  0.98482852     0.10100
C1216       C  0.01991035  0.64881406  0.52509234    -0.07000
C1217       C  0.49255749  0.63419508  0.54005070    -0.18200
C1218       C  0.46983028  0.62432208  0.51475084     0.10200
S1219       S  0.05405009  0.67862249  0.96166827    -0.33200
S1220       S  0.43635086  0.60886715  0.53737405    -0.33200
H1221       H  0.42495509  0.61725016  0.02022249     0.28200
H1222       H  0.06921438  0.66103728  0.48364620     0.28200
H1223       H  0.00125684  0.64775973  0.92830346     0.18800
H1224       H  0.48947885  0.63307066  0.57211342     0.18800
C1225       C  0.01967645  0.64417528  0.72234953    -0.07100
C1226       C  0.01050063  0.66154265  0.73715184    -0.18200
C1227       C  0.98946272  0.65234331  0.76559648     0.10100
C1228       C  0.47236596  0.62326295  0.77571438    -0.07000
C1229       C  0.48688725  0.60931238  0.76971727    -0.18200
C1230       C  0.50822040  0.61861910  0.74206063     0.10200
S1231       S  0.98046032  0.67688229  0.78414368    -0.33200
S1232       S  0.52629944  0.59988358  0.73795639    -0.33200
H1233       H  0.00929181  0.59096240  0.68376445     0.28200
H1234       H  0.46022247  0.66361500  0.80214706     0.28200
H1235       H  0.01999533  0.68257113  0.72675970     0.18800
H1236       H  0.48128563  0.59068364  0.78628923     0.18800
C1237       C  0.14495628  0.62230856  0.77351383    -0.07100
C1238       C  0.15993318  0.65036073  0.76410536    -0.18200
C1239       C  0.15026679  0.66197098  0.73600197     0.10100
C1240       C  0.12455818  0.64536073  0.71739462    -0.07000
C1241       C  0.10995678  0.61718508  0.72619186    -0.18200
C1242       C  0.11999216  0.60546884  0.75335029     0.10200
S1243       S  0.17226491  0.69775625  0.72417429    -0.33200
S1244       S  0.10051213  0.56872259  0.75944697    -0.33200
H1245       H  0.12356741  0.56525000  0.76057825     0.28200
H1246       H  0.16591238  0.69476689  0.68315082     0.28200
H1247       H  0.17947695  0.66333798  0.77855673     0.18800
H1248       H  0.09037674  0.60406934  0.71191503     0.18800
C1249       C  0.14326214  0.62458436  0.96852840    -0.07100
C1250       C  0.11502038  0.61044468  0.97652736    -0.18200
C1251       C  0.10454075  0.61900514  0.50509226     0.10100
C1252       C  0.12055765  0.64594465  0.52019025    -0.07000
C1253       C  0.14765939  0.66220383  0.50675857    -0.18200
C1254       C  0.15997781  0.65058905  0.98631141     0.10200
S1255       S  0.06876924  0.59705014  0.51708760    -0.33200
S1256       S  0.19612003  0.67158709  0.97604158    -0.33200
H1257       H  0.19387290  0.66475232  0.93524247     0.28200
H1258       H  0.06227021  0.61812661  0.51666339     0.28200
H1259       H  0.10194049  0.59061900  0.96291884     0.18800
H1260       H  0.15992025  0.68305279  0.51751538     0.18800
C1261       C  0.12796485  0.97837340  0.52846297    -0.07100
C1262       C  0.15138616  0.48874592  0.51796052    -0.18200
C1263       C  0.16321320  0.51127844  0.49182589     0.10100
C1264       C  0.14593546  0.51915650  0.97286451    -0.07000
C1265       C  0.13188081  0.99742276  0.96113813    -0.18200
C1266       C  0.12030143  0.97474285  0.98671720     0.10200
S1267       S  0.19965037  0.52767700  0.48385348    -0.33200
S1268       S  0.09542240  0.94223298  0.96554404    -0.33200
H1269       H  0.07813333  0.93332814  0.99907602     0.28200
H1270       H  0.20297645  0.55189073  0.00958452     0.28200
H1271       H  0.16442700  0.48254261  0.53309466     0.18800
H1272       H  0.12584707  0.99460941  0.93005771     0.18800
C1273       C  0.14956617  0.52068753  0.77788314    -0.07100
C1274       C  0.15368343  0.52555243  0.73655403    -0.18200
C1275       C  0.14320778  0.50389098  0.70912774     0.10100
C1276       C  0.12786675  0.97766142  0.72540184    -0.07000
C1277       C  0.12662242  0.97274175  0.76664053    -0.18200
C1278       C  0.13709017  0.99435987  0.79402859     0.10200
S1279       S  0.15109797  0.51233863  0.65698653    -0.33200
S1280       S  0.13536463  0.98559642  0.84617221    -0.33200
H1281       H  0.15775792  0.50660259  0.85548249     0.28200
H1282       H  0.14880843  0.99154353  0.64737250     0.28200
H1283       H  0.16478798  0.54641686  0.72543278     0.18800
H1284       H  0.11698049  0.95184686  0.77765757     0.18800
C1285       C  0.47516154  0.85017940  0.77726317    -0.07100
C1286       C  0.48953633  0.87847277  0.76964524    -0.18200
C1287       C  0.00699135  0.89188702  0.73662832     0.10100
C1288       C  0.01966107  0.87699024  0.72367383    -0.07000
C1289       C  0.01041786  0.85062481  0.73949058    -0.18200
C1290       C  0.48355976  0.83325393  0.75793186     0.10200
S1291       S  0.01868373  0.92682605  0.72181329    -0.33200
S1292       S  0.46782029  0.79698404  0.76743003    -0.33200
H1293       H  0.46347533  0.79887422  0.80842951     0.28200
H1294       H  0.04673029  0.93538527  0.72529544     0.28200
H1295       H  0.48340753  0.89169518  0.78442705     0.18800
H1296       H  0.02039776  0.83923870  0.73068031     0.18800
C1297       C  0.02479464  0.87799563  0.52548038    -0.07100
C1298       C  0.51410256  0.84858437  0.50605849    -0.18200
C1299       C  0.49218334  0.83655458  0.47894270     0.10100
C1300       C  0.47596485  0.85011702  0.97214115    -0.07000
C1301       C  0.99103350  0.88299912  0.98456963    -0.18200
C1302       C  0.01250630  0.89438266  0.01217983     0.10200
S1303       S  0.48705145  0.80657783  0.45210259    -0.33200
S1304       S  0.02527686  0.92968373  0.02571908    -0.33200
H1305       H  0.01145288  0.93545353  0.50165685     0.28200
H1306       H  0.48199393  0.81824139  0.91265745     0.28200
H1307       H  0.52686226  0.83939796  0.51020244     0.18800
H1308       H  0.98229650  0.89523484  0.97418765     0.18800
C1309       C  0.08223583  0.81621644  0.63044821    -0.07100
C1310       C  0.07253747  0.79960536  0.59621018    -0.18200
C1311       C  0.07136318  0.77414177  0.59432188     0.10100
C1312       C  0.08059133  0.76505430  0.62718159    -0.07000
C1313       C  0.08902190  0.78111336  0.66200173    -0.18200
C1314       C  0.09039086  0.80659206  0.66393684     0.10200
S1315       S  0.05784207  0.75438118  0.54923430    -0.33200
S1316       S  0.10569269  0.82765036  0.70781133    -0.33200
H1317       H  0.10994191  0.80883430  0.72988237     0.28200
H1318       H  0.04485535  0.72881676  0.56880895     0.28200
H1319       H  0.06610478  0.80666863  0.57046033     0.18800
H1320       H  0.09644365  0.77453823  0.68709722     0.18800
C1321       C  0.35308195  0.97713583  0.72260315    -0.07100
C1322       C  0.37224108  0.49679400  0.71816437    -0.18200
C1323       C  0.38419883  0.51961246  0.74321467     0.10100
C1324       C  0.36936525  0.52087765  0.77620906    -0.07000
C1325       C  0.36620534  0.99626275  0.78925650    -0.18200
C1326       C  0.35610433  0.97365737  0.76372838     0.10200
S1327       S  0.41839553  0.54664012  0.73120915    -0.33200
S1328       S  0.34887032  0.94129217  0.78515587    -0.33200
H1329       H  0.35836761  0.93294593  0.75214000     0.28200
H1330       H  0.41404713  0.56818487  0.74255612     0.28200
H1331       H  0.38409277  0.49639280  0.69290690     0.18800
H1332       H  0.36877233  0.99342038  0.82058583     0.18800
C1333       C  0.34545556  0.97602538  0.52585341    -0.07100
C1334       C  0.34315259  0.96978671  0.98295961    -0.18200
C1335       C  0.35397126  0.99160840  0.95571271     0.10100
C1336       C  0.37205196  0.51912218  0.97144195    -0.07000
C1337       C  0.37215885  0.52497913  0.51409964    -0.18200
C1338       C  0.36162835  0.50357230  0.54211015     0.10200
S1339       S  0.35021063  0.98315210  0.90331625    -0.33200
S1340       S  0.36203191  0.51257235  0.59393852    -0.33200
H1341       H  0.33735854  0.98798124  0.60457138     0.28200
H1342       H  0.35029851  0.50065817  0.89336104     0.28200
H1343       H  0.33386291  0.94894359  0.97187867     0.18800
H1344       H  0.38092100  0.54586735  0.52477745     0.18800
C1345       C  0.34969420  0.87148010  0.52898641    -0.07100
C1346       C  0.34378822  0.87003130  0.48801065    -0.18200
C1347       C  0.35415954  0.85864990  0.46091004     0.10100
C1348       C  0.37248485  0.85046082  0.97189751    -0.07000
C1349       C  0.37518002  0.84810054  0.01328076    -0.18200
C1350       C  0.36397134  0.85838619  0.04096540     0.10200
S1351       S  0.34440932  0.85706231  0.40919367    -0.33200
S1352       S  0.36757993  0.85310662  0.09329874    -0.33200
H1353       H  0.34757872  0.85404013  0.60916174     0.28200
H1354       H  0.34635769  0.83918312  0.89605201     0.28200
H1355       H  0.33122917  0.87818371  0.47682651     0.18800
H1356       H  0.38632095  0.83833592  0.02423360     0.18800
C1357       C  0.37356269  0.85053787  0.77306263    -0.07100
C1358       C  0.34666009  0.83428162  0.75881453    -0.18200
C1359       C  0.33557947  0.84445395  0.73071054     0.10100
C1360       C  0.35120179  0.87199427  0.71773932    -0.07000
C1361       C  0.37832878  0.88790908  0.73097865    -0.18200
C1362       C  0.38985992  0.87736145  0.75745330     0.10200
S1363       S  0.30201264  0.82087071  0.71125686    -0.33200
S1364       S  0.42589452  0.89881092  0.76804905    -0.33200
H1365       H  0.43179116  0.87742187  0.76374802     0.28200
H1366       H  0.30791835  0.83135815  0.67204906     0.28200
H1367       H  0.33422178  0.81337114  0.76928574     0.18800
H1368       H  0.39078272  0.90884226  0.72058257     0.18800
C1369       C  0.18257073  0.91627699  0.63292517    -0.07100
C1370       C  0.19829889  0.92351843  0.59760206    -0.18200
C1371       C  0.22372443  0.92472489  0.59602564     0.10100
C1372       C  0.23361208  0.91756816  0.63013658    -0.07000
C1373       C  0.21905011  0.91243399  0.66614346    -0.18200
C1374       C  0.19415482  0.91219440  0.66822411     0.10200
S1375       S  0.24246365  0.93565694  0.54960224    -0.33200
S1376       S  0.17825777  0.90546872  0.71685775    -0.33200
H1377       H  0.17452047  0.92838118  0.71539013     0.28200
H1378       H  0.26844563  0.94956478  0.56780700     0.28200
H1379       H  0.19057108  0.92781367  0.57053273     0.18800
H1380       H  0.22653012  0.90742088  0.69286136     0.18800
C1381       C  0.22955143  0.81664368  0.62787190    -0.07100
C1382       C  0.22600295  0.79644058  0.59991203    -0.18200
C1383       C  0.20185044  0.77074983  0.59912177     0.10100
C1384       C  0.18065253  0.76511437  0.62673482    -0.07000
C1385       C  0.18479710  0.78487268  0.65556935    -0.18200
C1386       C  0.20837841  0.81052539  0.65590817     0.10200
S1387       S  0.19953029  0.74603915  0.56280324    -0.33200
S1388       S  0.20829598  0.83526152  0.69013174    -0.33200
H1389       H  0.21560610  0.85557097  0.66060775     0.28200
H1390       H  0.18300307  0.72287311  0.58650633     0.28200
H1391       H  0.24205433  0.80072124  0.57841650     0.18800
H1392       H  0.16851972  0.78114942  0.67636656     0.18800
Fe1393     Fe  0.85119905  0.42638675  0.12272476     1.65800
Fe1394     Fe  0.79188296  0.39618757  0.17657526     1.73200
Fe1395     Fe  0.78907627  0.39311415  0.07468200     1.54400
O1396       O  0.81086383  0.43116443  0.04829744    -0.82600
O1397       O  0.76194200  0.35760373  0.15947313    -0.80900
O1398       O  0.85222630  0.45136169  0.07664256    -0.85100
O1399       O  0.85316471  0.39908678  0.08327419    -0.80000
O1400       O  0.76108413  0.40391681  0.09477761    -0.81800
O1401       O  0.81438562  0.37928143  0.19783834    -0.84500
C1402       C  0.83761336  0.38370646  0.05566558     0.96300
C1403       C  0.83521459  0.45093217  0.05141550     1.03700
O1404       O  0.81075997  0.40522223  0.12457279    -1.13500
O1405       O  0.81858002  0.43323569  0.20255121    -0.75900
O1406       O  0.85418158  0.45612622  0.16195591    -0.79400
O1407       O  0.81410114  0.38059614  0.04869783    -0.80100
C1408       C  0.84099437  0.45444166  0.19357197     0.95200
O1409       O  0.85542615  0.40449444  0.16925610    -0.78000
O1410       O  0.76762062  0.41236306  0.16003668    -0.83200
C1411       C  0.75334779  0.34374261  0.12764509     0.97800
C1412       C  0.75576447  0.41177321  0.12743732     1.03700
O1413       O  0.76406674  0.35333977  0.09389117    -0.78900
C1414       C  0.83952496  0.38650642  0.19421697     1.02000
Fe1415     Fe  0.57446839  0.42839605  0.12585520     1.65800
Fe1416     Fe  0.60144234  0.39580654  0.17766795     1.73200
Fe1417     Fe  0.60264791  0.39545295  0.07588970     1.54400
O1418       O  0.56558827  0.38541979  0.04915034    -0.82600
O1419       O  0.64191640  0.41199824  0.16223408    -0.80900
O1420       O  0.54431356  0.40118421  0.08811366    -0.85100
O1421       O  0.59654593  0.45238168  0.07779287    -0.80000
O1422       O  0.58586154  0.35469410  0.09280381    -0.81800
O1423       O  0.61167809  0.43237720  0.20560249    -0.84500
C1424       C  0.61415951  0.45305930  0.05354222     0.96300
C1425       C  0.54505677  0.38816300  0.05761536     1.03700
O1426       O  0.59281231  0.40650409  0.12628456    -1.13500
O1427       O  0.56169112  0.37856040  0.19778409    -0.75900
O1428       O  0.54934849  0.40776611  0.17417419    -0.79400
O1429       O  0.62079176  0.43461681  0.05218890    -0.80100
C1430       C  0.54576341  0.38839062  0.19743964     0.95200
O1431       O  0.60336017  0.45778308  0.16311646    -0.78000
O1432       O  0.59283714  0.35774699  0.15802962    -0.83200
C1433       C  0.65357075  0.41136269  0.13017836     0.97800
C1434       C  0.58637314  0.34402479  0.12601619     1.03700
O1435       O  0.64093047  0.40434943  0.09689813    -0.78900
C1436       C  0.61348428  0.45490398  0.19535877     1.02000
Fe1437     Fe  0.56931909  0.14373535  0.12196222     1.65800
Fe1438     Fe  0.60165967  0.20528620  0.07168273     1.73200
Fe1439     Fe  0.59939981  0.20380654  0.17410859     1.54400
O1440       O  0.56125926  0.17997523  0.19892723    -0.82600
O1441       O  0.64118612  0.23203549  0.09086683    -0.80900
O1442       O  0.54237490  0.14045792  0.16630537    -0.85100
O1443       O  0.59459388  0.14051570  0.16349625    -0.80000
O1444       O  0.58666947  0.23053124  0.15556471    -0.81800
O1445       O  0.61569826  0.18103288  0.04687607    -0.84500
C1446       C  0.60971294  0.15560521  0.19165122     0.96300
C1447       C  0.54202733  0.15559313  0.19399048     1.03700
O1448       O  0.59017798  0.18427699  0.12251821    -1.13500
O1449       O  0.56368684  0.18144529  0.04570853    -0.75900
O1450       O  0.54186856  0.14245178  0.08048034    -0.79400
O1451       O  0.61321616  0.17929246  0.19878427    -0.80100
C1452       C  0.54306719  0.15787733  0.05196149     0.95200
O1453       O  0.59273305  0.14051913  0.07730965    -0.78000
O1454       O  0.58923599  0.23265385  0.08928276    -0.83200
C1455       C  0.65201819  0.24037739  0.12496858     0.97800
C1456       C  0.58456500  0.24041590  0.12249350     1.03700
O1457       O  0.63892678  0.23084604  0.15729583    -0.78900
C1458       C  0.60910886  0.15606264  0.05061030     1.02000
Fe1459     Fe  0.92385385  0.35201709  0.37736109     1.65800
Fe1460     Fe  0.89209479  0.29226360  0.32443659     1.73200
Fe1461     Fe  0.89538820  0.29029252  0.42615477     1.54400
O1462       O  0.93325069  0.31508551  0.45161852    -0.82600
O1463       O  0.85182072  0.26871911  0.34328130    -0.80900
O1464       O  0.95229914  0.35460871  0.41831362    -0.85100
O1465       O  0.89949315  0.35324951  0.42226172    -0.80000
O1466       O  0.91047063  0.26599812  0.40522884    -0.81800
O1467       O  0.88179946  0.31898301  0.29881333    -0.84500
C1468       C  0.88348797  0.33665691  0.44851437     0.96300
C1469       C  0.95274263  0.33923685  0.44558123     1.03700
O1470       O  0.90380578  0.31162034  0.37606051    -1.13500
O1471       O  0.93146443  0.31415309  0.30113157    -0.75900
O1472       O  0.95023167  0.35461852  0.33240006    -0.79400
O1473       O  0.87955028  0.31252218  0.45303967    -0.80100
C1474       C  0.95108535  0.33853846  0.30645153     0.95200
O1475       O  0.89848646  0.35603138  0.33694003    -0.78000
O1476       O  0.90023461  0.26203226  0.34093628    -0.83200
C1477       C  0.84170811  0.25666881  0.37632936     0.97800
C1478       C  0.90825505  0.25487514  0.37146432     1.03700
O1479       O  0.85620960  0.26194389  0.40763538    -0.78900
C1480       C  0.88522358  0.34243668  0.30667225     1.02000
Fe1481     Fe  0.92345728  0.07207491  0.37650745     1.65800
Fe1482     Fe  0.89191525  0.10195007  0.42569095     1.73200
Fe1483     Fe  0.89283977  0.10120877  0.32357910     1.52000
O1484       O  0.93048507  0.11323118  0.29778244    -0.82600
O1485       O  0.85183882  0.08569408  0.40799633    -0.80900
O1486       O  0.95279130  0.09919827  0.33754759    -0.85100
O1487       O  0.90184351  0.04619668  0.32977644    -0.80000
O1488       O  0.90765215  0.14122600  0.33969154    -0.81800
O1489       O  0.88099994  0.06498381  0.45321857    -0.84500
C1490       C  0.88463289  0.04473201  0.30401391     0.96300
C1491       C  0.95167732  0.11201088  0.30704326     1.03700
O1492       O  0.90274514  0.09173362  0.37525036    -1.13500
O1493       O  0.93069634  0.11954571  0.44934014    -0.75900
O1494       O  0.94834083  0.09533231  0.42320632    -0.79400
O1495       O  0.87721920  0.06246975  0.30113238    -0.80100
C1496       C  0.94918865  0.11307851  0.44743625     0.95200
O1497       O  0.89607066  0.04266799  0.41531355    -0.78000
O1498       O  0.90124119  0.14028836  0.40535257    -0.83200
C1499       C  0.84041240  0.08420194  0.37479988     0.97800
C1500       C  0.90788071  0.15286193  0.37216442     1.03700
O1501       O  0.85363951  0.09033663  0.34206730    -0.78900
C1502       C  0.88263540  0.04385110  0.44492472     1.02000
Fe1503     Fe  0.64389597  0.07085010  0.37486334     1.65800
Fe1504     Fe  0.70488969  0.10257199  0.42474420     1.73200
Fe1505     Fe  0.70393115  0.10270606  0.32264522     1.54400
O1506       O  0.67829599  0.06537700  0.29605981    -0.82600
O1507       O  0.72909072  0.14290176  0.40753522    -0.80900
O1508       O  0.64233080  0.04177674  0.33594684    -0.85100
O1509       O  0.63973265  0.09256383  0.32798366    -0.80000
O1510       O  0.72891075  0.08746349  0.33850625    -0.81800
O1511       O  0.67894317  0.11398149  0.45172059    -0.84500
C1512       C  0.65543472  0.11051777  0.30287629     0.96300
C1513       C  0.65642316  0.04354831  0.30534458     1.03700
O1514       O  0.68422982  0.09212287  0.37411173    -1.13500
O1515       O  0.68338736  0.06358160  0.44831030    -0.75900
O1516       O  0.64212597  0.04578524  0.42128137    -0.79400
O1517       O  0.68089301  0.11888706  0.30079857    -0.80100
C1518       C  0.65868737  0.04457062  0.44579577     0.95200
O1519       O  0.64131720  0.09765683  0.41409824    -0.78000
O1520       O  0.73342237  0.09241998  0.40431050    -0.83200
C1521       C  0.73954012  0.15451557  0.37449724     0.97800
C1522       C  0.73970229  0.08617047  0.37096952     1.03700
O1523       O  0.73275338  0.14152577  0.34170045    -0.78900
C1524       C  0.65588126  0.11169152  0.44340982     1.02000
C1525       C  0.81108276  0.07705851  0.37399463    -0.07100
C1526       C  0.79949814  0.07756592  0.33700114    -0.18200
C1527       C  0.77469922  0.07751527  0.33459834     0.10100
C1528       C  0.76151726  0.07852443  0.37020439    -0.07000
C1529       C  0.77142495  0.07479286  0.40685473    -0.18200
C1530       C  0.79536635  0.07317668  0.40905880     0.10200
S1531       S  0.76200131  0.07716328  0.28503203    -0.33200
S1532       S  0.80451613  0.06654102  0.45772592    -0.33200
H1533       H  0.81158062  0.04737957  0.44335149     0.28200
H1534       H  0.73543558  0.05555096  0.29377052     0.28200
H1535       H  0.81023177  0.07891530  0.30946859     0.18800
H1536       H  0.76077661  0.07369045  0.43437582     0.18800
C1537       C  0.81242319  0.23420330  0.37764940    -0.07100
C1538       C  0.79827157  0.22405217  0.34138054    -0.18200
C1539       C  0.77301712  0.19960219  0.33976151     0.10100
C1540       C  0.76194441  0.18377805  0.37493804    -0.07000
C1541       C  0.77465200  0.19532580  0.41160225    -0.18200
C1542       C  0.79911120  0.22047211  0.41349543     0.10200
S1543       S  0.75621879  0.19004256  0.29182989    -0.33200
S1544       S  0.81195842  0.23340914  0.46280628    -0.33200
H1545       H  0.81979429  0.26069464  0.45304912     0.28200
H1546       H  0.72977996  0.18023476  0.30773729     0.28200
H1547       H  0.80722702  0.23479165  0.31366509     0.18800
H1548       H  0.76595783  0.18434805  0.43926292     0.18800
C1549       C  0.91369376  0.23167377  0.36816044    -0.07100
C1550       C  0.92265277  0.22388487  0.40242646    -0.18200
C1551       C  0.92330475  0.19939541  0.40370089     0.10100
C1552       C  0.91404824  0.18163353  0.37039159    -0.07000
C1553       C  0.90746790  0.19048008  0.33508339    -0.18200
C1554       C  0.90749752  0.21521453  0.33326912     0.10200
S1555       S  0.93616746  0.19213640  0.44865355    -0.33200
S1556       S  0.89774135  0.22303185  0.28584411    -0.33200
H1557       H  0.92048322  0.24968825  0.28422860     0.28200
H1558       H  0.94855275  0.17908292  0.42878675     0.28200
H1559       H  0.92857514  0.23657072  0.42895170     0.18800
H1560       H  0.90093332  0.17741008  0.30892382     0.18800
C1561       C  0.97267426  0.12641400  0.47479885    -0.07100
C1562       C  0.49917047  0.14486818  0.46098970    -0.18200
C1563       C  0.52232838  0.15672630  0.48558133     0.10100
C1564       C  0.51937196  0.14747969  0.02474384    -0.07000
C1565       C  0.99158406  0.13105132  0.04209115    -0.18200
C1566       C  0.96860760  0.12149544  0.01728001     0.10200
S1567       S  0.55478077  0.17874965  0.46168321    -0.33200
S1568       S  0.93524623  0.10345136  0.04024338    -0.33200
H1569       H  0.92492904  0.11522581  0.52288358     0.28200
H1570       H  0.56802388  0.15969461  0.98126187     0.28200
H1571       H  0.50138591  0.14988279  0.42943556     0.18800
H1572       H  0.98860582  0.12805560  0.07407730     0.18800
C1573       C  0.51875624  0.14438353  0.22250344    -0.07100
C1574       C  0.51089141  0.16224591  0.23963343    -0.18200
C1575       C  0.49026029  0.15310064  0.26874874     0.10100
C1576       C  0.97555249  0.12458760  0.27995335    -0.07000
C1577       C  0.98908109  0.10985653  0.27220267    -0.18200
C1578       C  0.01022555  0.11910211  0.24420590     0.10200
S1579       S  0.48271585  0.17796786  0.29027338    -0.33200
S1580       S  0.02694219  0.09919559  0.23786753    -0.33200
H1581       H  0.50449012  0.09105190  0.17991465     0.28200
H1582       H  0.96538279  0.16530828  0.31053896     0.28200
H1583       H  0.52109159  0.18358934  0.23059357     0.18800
H1584       H  0.98272832  0.09059673  0.28744806     0.18800
C1585       C  0.64358034  0.12171096  0.27409591    -0.07100
C1586       C  0.65905519  0.14942098  0.26284667    -0.18200
C1587       C  0.64909605  0.16085287  0.23494200     0.10100
C1588       C  0.62268426  0.14445625  0.21839134    -0.07000
C1589       C  0.60743028  0.11666673  0.22914256    -0.18200
C1590       C  0.61766233  0.10505848  0.25614544     0.10200
S1591       S  0.67154767  0.19607591  0.22056157    -0.33200
S1592       S  0.59712408  0.06862226  0.26473140    -0.33200
H1593       H  0.61940176  0.06390169  0.26340615     0.28200
H1594       H  0.66338569  0.19229891  0.18023373     0.28200
H1595       H  0.67922212  0.16225857  0.27564213     0.18800
H1596       H  0.58724154  0.10379145  0.21640318     0.18800
C1597       C  0.64478504  0.12493477  0.46974254    -0.07100
C1598       C  0.61692297  0.10985098  0.47993833    -0.18200
C1599       C  0.60399922  0.11821806  0.00454496     0.10100
C1600       C  0.62046355  0.14437183  0.02198569    -0.07000
C1601       C  0.64821619  0.15986707  0.01114206    -0.18200
C1602       C  0.66101097  0.15165206  0.48552934     0.10200
S1603       S  0.56758635  0.09735711  0.01316104    -0.33200
S1604       S  0.69659354  0.17351676  0.47257926    -0.33200
H1605       H  0.69364265  0.16481911  0.43257247     0.28200
H1606       H  0.56246711  0.11932805  0.01468567     0.28200
H1607       H  0.60423570  0.08942787  0.46787660     0.18800
H1608       H  0.66086228  0.18014313  0.02367570     0.18800
C1609       C  0.62696391  0.47616822  0.02530997    -0.07100
C1610       C  0.65243827  0.98871200  0.01930427    -0.18200
C1611       C  0.66470141  0.01167663  0.99384432     0.10100
C1612       C  0.64810876  0.02015431  0.47271606    -0.07000
C1613       C  0.63120504  0.49698848  0.46203672    -0.18200
C1614       C  0.61948553  0.47435251  0.48778255     0.10200
S1615       S  0.70144057  0.02904422  0.98932319    -0.33200
S1616       S  0.59645567  0.44140229  0.46599534    -0.33200
H1617       H  0.57726437  0.43268996  0.49733171     0.28200
H1618       H  0.70078168  0.05798576  0.51564733     0.28200
H1619       H  0.66532499  0.98284998  0.03564585     0.18800
H1620       H  0.62686745  0.49367412  0.43041345     0.18800
C1621       C  0.64661294  0.01970322  0.27828153    -0.07100
C1622       C  0.65091189  0.02466641  0.23698923    -0.18200
C1623       C  0.64054390  0.00314104  0.20943710     0.10100
C1624       C  0.62697348  0.47817943  0.22319556    -0.07000
C1625       C  0.61957862  0.47340100  0.26367942    -0.18200
C1626       C  0.63027452  0.49475645  0.29145740     0.10200
S1627       S  0.64923360  0.01182202  0.15752588    -0.33200
S1628       S  0.61982286  0.48582215  0.34275523    -0.33200
H1629       H  0.65462187  0.00466381  0.35557887     0.28200
H1630       H  0.65769200  0.48755701  0.15265602     0.28200
H1631       H  0.66229982  0.04553642  0.22596175     0.18800
H1632       H  0.60509633  0.45283675  0.27375669     0.18800
C1633       C  0.97574288  0.34952735  0.28051455    -0.07100
C1634       C  0.98822046  0.37721274  0.26921254    -0.18200
C1635       C  0.51465789  0.39412641  0.24639902     0.10100
C1636       C  0.52240627  0.37713243  0.22570610    -0.07000
C1637       C  0.50794865  0.34878263  0.23306033    -0.18200
C1638       C  0.98714966  0.33362472  0.26665250     0.10200
S1639       S  0.53342562  0.43104607  0.24300283    -0.33200
S1640       S  0.97528493  0.29902142  0.28327992    -0.33200
H1641       H  0.96941331  0.30333118  0.32261787     0.28200
H1642       H  0.55936724  0.43319662  0.24208200     0.28200
H1643       H  0.98018713  0.38989687  0.28027292     0.18800
H1644       H  0.51405697  0.33560736  0.21807848     0.18800
C1645       C  0.52129112  0.37602860  0.03018509    -0.07100
C1646       C  0.01260413  0.34953718  0.00678260    -0.18200
C1647       C  0.99164841  0.33826759  0.97819649     0.10100
C1648       C  0.97617816  0.35077252  0.47318267    -0.07000
C1649       C  0.48910709  0.38014350  0.48798859    -0.18200
C1650       C  0.51046908  0.39188960  0.51590393     0.10200
S1651       S  0.98851455  0.31021104  0.94820486    -0.33200
S1652       S  0.52202405  0.42666095  0.53208114    -0.33200
H1653       H  0.50556730  0.41209349  0.07886406     0.28200
H1654       H  0.97709399  0.31335735  0.41865769     0.28200
H1655       H  0.02589696  0.34087633  0.00998205     0.18800
H1656       H  0.47940019  0.39161012  0.47832367     0.18800
C1657       C  0.58073959  0.31505328  0.12727302    -0.07100
C1658       C  0.57390161  0.29978807  0.09154859    -0.18200
C1659       C  0.57236888  0.27415316  0.08953235     0.10100
C1660       C  0.57879776  0.26357893  0.12368496    -0.07000
C1661       C  0.58322790  0.27764227  0.16002764    -0.18200
C1662       C  0.58414615  0.30290343  0.16253488     0.10200
S1663       S  0.56183996  0.25608199  0.04262671    -0.33200
S1664       S  0.59083568  0.31918634  0.21119974    -0.33200
H1665       H  0.59302275  0.29912540  0.23333481     0.28200
H1666       H  0.54624491  0.23004620  0.06034484     0.28200
H1667       H  0.57012985  0.30804652  0.06454980     0.18800
H1668       H  0.58740772  0.26943777  0.18665663     0.18800
C1669       C  0.85221050  0.47783795  0.22160616    -0.07100
C1670       C  0.86051527  0.00305889  0.20865512    -0.18200
C1671       C  0.87093229  0.02549692  0.23447097     0.10100
C1672       C  0.87306353  0.02159789  0.27579072    -0.07000
C1673       C  0.86182292  0.49662866  0.28887446    -0.18200
C1674       C  0.85173550  0.47397916  0.26346794     0.10200
S1675       S  0.88296224  0.05884431  0.21268682    -0.33200
S1676       S  0.84006687  0.44094648  0.28642303    -0.33200
H1677       H  0.85128384  0.43157894  0.25702791     0.28200
H1678       H  0.86113197  0.06117110  0.22879692     0.28200
H1679       H  0.85876551  0.00619432  0.17710058     0.18800
H1680       H  0.86166867  0.49335604  0.32085387     0.18800
C1681       C  0.84435680  0.47432276  0.02399085    -0.07100
C1682       C  0.84738589  0.47061838  0.48338891    -0.18200
C1683       C  0.85801149  0.49254437  0.45641274     0.10100
C1684       C  0.86903444  0.02001072  0.47187936    -0.07000
C1685       C  0.86950577  0.02429507  0.01179705    -0.18200
C1686       C  0.85844343  0.00259244  0.03917426     0.10200
S1687       S  0.85817194  0.48450321  0.40442454    -0.33200
S1688       S  0.86182740  0.01118245  0.09149088    -0.33200
H1689       H  0.82841064  0.48349500  0.09932084     0.28200
H1690       H  0.84317925  0.00974258  0.39679741     0.28200
H1691       H  0.84061744  0.45008959  0.47244912     0.18800
H1692       H  0.88008574  0.04515057  0.02296595     0.18800
C1693       C  0.84745169  0.36948669  0.02917277    -0.07100
C1694       C  0.84370396  0.37042519  0.98784551    -0.18200
C1695       C  0.85384918  0.35884508  0.96067985     0.10100
C1696       C  0.86932290  0.34630637  0.47538618    -0.07000
C1697       C  0.86987690  0.34238095  0.51677195    -0.18200
C1698       C  0.85936303  0.35381424  0.54380465     0.10200
S1699       S  0.84725130  0.36066040  0.90830072    -0.33200
S1700       S  0.86025870  0.34694813  0.59628675    -0.33200
H1701       H  0.83993350  0.34928147  0.10773072     0.28200
H1702       H  0.84962956  0.34010009  0.39643106     0.28200
H1703       H  0.83312087  0.38067743  0.97652364     0.18800
H1704       H  0.87907340  0.33081051  0.52816867     0.18800
C1705       C  0.87364967  0.35428741  0.27859341    -0.07100
C1706       C  0.84896495  0.33648124  0.25898008    -0.18200
C1707       C  0.83773691  0.34617233  0.23041901     0.10100
C1708       C  0.85117966  0.37447118  0.22151256    -0.07000
C1709       C  0.87588763  0.39226979  0.24086871    -0.18200
C1710       C  0.88737406  0.38254613  0.26890290     0.10200
S1711       S  0.80677557  0.32122533  0.20561333    -0.33200
S1712       S  0.92014138  0.40713585  0.28961437    -0.33200
H1713       H  0.93170487  0.39018011  0.28506440     0.28200
H1714       H  0.81243639  0.33516635  0.16890603     0.28200
H1715       H  0.83844029  0.31472744  0.26562963     0.18800
H1716       H  0.88634412  0.41401795  0.23414388     0.18800
C1717       C  0.68260888  0.41766295  0.13148016    -0.07100
C1718       C  0.69681215  0.42202283  0.09515282    -0.18200
C1719       C  0.72214915  0.42310208  0.09330939     0.10100
C1720       C  0.73329030  0.41836537  0.12832748    -0.07000
C1721       C  0.72034424  0.41643766  0.16504801    -0.18200
C1722       C  0.69566634  0.41662197  0.16719777     0.10200
S1723       S  0.73901228  0.43066952  0.04533137    -0.33200
S1724       S  0.68154094  0.41372388  0.21648559    -0.33200
H1725       H  0.67947252  0.43749345  0.21197667     0.28200
H1726       H  0.76554533  0.44665784  0.06121014     0.28200
H1727       H  0.68792711  0.42418898  0.06763444     0.18800
H1728       H  0.72884388  0.41355389  0.19245613     0.18800
C1729       C  0.72886811  0.31591490  0.12976517    -0.07100
C1730       C  0.72523111  0.29606208  0.10110330    -0.18200
C1731       C  0.70113550  0.27035901  0.09995684     0.10100
C1732       C  0.68004069  0.26430550  0.12793165    -0.07000
C1733       C  0.68431549  0.28363063  0.15761043    -0.18200
C1734       C  0.70788869  0.30933967  0.15833401     0.10200
S1735       S  0.69871693  0.24619131  0.06259518    -0.33200
S1736       S  0.70804837  0.33357885  0.19378539    -0.33200
H1737       H  0.71506175  0.35435677  0.16509227     0.28200
H1738       H  0.68231170  0.22268719  0.08575301     0.28200
H1739       H  0.74114281  0.30067397  0.07920434     0.18800
H1740       H  0.66813342  0.27955187  0.17879190     0.18800
Fe1741     Fe  0.85124779  0.42606754  0.62287402     1.65800
Fe1742     Fe  0.79129191  0.39736822  0.67515181     1.73200
Fe1743     Fe  0.78966393  0.39332861  0.57351565     1.54400
O1744       O  0.81169789  0.43169982  0.54793917    -0.82600
O1745       O  0.76158574  0.35900626  0.65788581    -0.80900
O1746       O  0.85307082  0.45121220  0.57648163    -0.85100
O1747       O  0.85332888  0.39854795  0.58404227    -0.80000
O1748       O  0.76098230  0.40345726  0.59249210    -0.81800
O1749       O  0.81285849  0.38002667  0.69827769    -0.84500
C1750       C  0.83826244  0.38382469  0.55561550     0.96300
C1751       C  0.83620474  0.45122562  0.55134567     1.03700
O1752       O  0.81082183  0.40560410  0.62378038    -1.13500
O1753       O  0.81794319  0.43428012  0.70093093    -0.75900
O1754       O  0.85453376  0.45608264  0.66175548    -0.79400
O1755       O  0.81509411  0.38125117  0.54779593    -0.80100
C1756       C  0.84089862  0.45492823  0.69257404     0.95200
O1757       O  0.85413553  0.40370655  0.66974952    -0.78000
O1758       O  0.76773407  0.41400579  0.65696849    -0.83200
C1759       C  0.75364561  0.34444586  0.62669598     0.97800
C1760       C  0.75559196  0.41219645  0.62418142     1.03700
O1761       O  0.76489811  0.35345354  0.59297359    -0.78900
C1762       C  0.83774908  0.38631688  0.69496340     1.02000
Fe1763     Fe  0.57449521  0.42931224  0.62905873     1.65800
Fe1764     Fe  0.60162117  0.39614642  0.68047228     1.73200
Fe1765     Fe  0.60250040  0.39675377  0.57866481     1.54400
O1766       O  0.56296226  0.37930521  0.55726865    -0.82600
O1767       O  0.63975479  0.40385352  0.66043700    -0.80900
O1768       O  0.54902344  0.40701734  0.58207511    -0.85100
O1769       O  0.60249528  0.45799125  0.59005396    -0.80000
O1770       O  0.59440094  0.35851217  0.59923962    -0.81800
O1771       O  0.62017426  0.43523821  0.70364106    -0.84500
C1772       C  0.61275739  0.45511643  0.55799006     0.96300
C1773       C  0.54625048  0.38828179  0.55805780     1.03700
O1774       O  0.59276841  0.40738008  0.62949610    -1.13500
O1775       O  0.56481818  0.38675778  0.70711625    -0.75900
O1776       O  0.54436974  0.40354115  0.66856035    -0.79400
O1777       O  0.61254269  0.43307523  0.54939336    -0.80100
C1778       C  0.54472768  0.39014850  0.69885629     0.95200
O1779       O  0.59796389  0.45442019  0.67533870    -0.78000
O1780       O  0.58385115  0.35578784  0.66359135    -0.83200
C1781       C  0.65350239  0.41220144  0.62820803     0.97800
C1782       C  0.58664018  0.34521071  0.63187572     1.03700
O1783       O  0.64286682  0.41384372  0.59560449    -0.78900
C1784       C  0.61513189  0.45471551  0.70020753     1.02000
Fe1785     Fe  0.57016425  0.14521414  0.62267429     1.65800
Fe1786     Fe  0.60206745  0.20729871  0.57410140     1.73200
Fe1787     Fe  0.60042501  0.20461362  0.67652829     1.54400
O1788       O  0.56210328  0.18088406  0.70064855    -0.82600
O1789       O  0.64156282  0.23361326  0.59336087    -0.80900
O1790       O  0.54356895  0.14135722  0.66779482    -0.85100
O1791       O  0.59567223  0.14145494  0.66304022    -0.80000
O1792       O  0.58856803  0.23232144  0.65968607    -0.81800
O1793       O  0.61620437  0.18343523  0.54770975    -0.84500
C1794       C  0.61041729  0.15595496  0.69186001     0.96300
C1795       C  0.54314862  0.15638553  0.69558471     1.03700
O1796       O  0.59089485  0.18572545  0.62438216    -1.13500
O1797       O  0.56394081  0.18382019  0.54833710    -0.75900
O1798       O  0.54245565  0.14435565  0.58192675    -0.79400
O1799       O  0.61350075  0.17930216  0.70022046    -0.80100
C1800       C  0.54341108  0.16010687  0.55403571     0.95200
O1801       O  0.59348744  0.14269880  0.57745990    -0.78000
O1802       O  0.58971732  0.23444173  0.59336261    -0.83200
C1803       C  0.65286367  0.24107639  0.62734260     0.97800
C1804       C  0.58591344  0.24230717  0.62710447     1.03700
O1805       O  0.64012369  0.23114485  0.65982426    -0.78900
C1806       C  0.60983574  0.15848612  0.55098186     1.02000
Fe1807     Fe  0.92275773  0.35195695  0.87703566     1.65800
Fe1808     Fe  0.89185655  0.29257808  0.82282657     1.73200
Fe1809     Fe  0.89400134  0.28988127  0.92507578     1.54400
O1810       O  0.93275203  0.31327251  0.94879532    -0.82600
O1811       O  0.85204096  0.26639653  0.84169427    -0.80900
O1812       O  0.94971701  0.35442682  0.92050298    -0.85100
O1813       O  0.89680834  0.35271896  0.91953527    -0.80000
O1814       O  0.90627108  0.26339442  0.90355379    -0.81800
O1815       O  0.87853763  0.31762741  0.79956809    -0.84500
C1816       C  0.88254403  0.33678340  0.94758244     0.96300
C1817       C  0.95114772  0.33822792  0.94536739     1.03700
O1818       O  0.90289394  0.31147013  0.87499847    -1.13500
O1819       O  0.93058981  0.31673303  0.79837030    -0.75900
O1820       O  0.95080108  0.35527495  0.83431462    -0.79400
O1821       O  0.88038432  0.31350487  0.95362104    -0.80100
C1822       C  0.95096094  0.34026948  0.80602837     0.95200
O1823       O  0.89875770  0.35613682  0.83458860    -0.78000
O1824       O  0.90326659  0.26436644  0.83765935    -0.83200
C1825       C  0.84072188  0.25633351  0.87517263     0.97800
C1826       C  0.90769240  0.25478989  0.86912535     1.03700
O1827       O  0.85406858  0.26332412  0.90770522    -0.78900
C1828       C  0.88347413  0.34176832  0.80630480     1.02000
Fe1829     Fe  0.92377242  0.07184927  0.87587057     1.65800
Fe1830     Fe  0.89200462  0.10207380  0.92430487     1.73200
Fe1831     Fe  0.89485133  0.10233297  0.82221455     1.52000
O1832       O  0.93253272  0.11397072  0.79753300    -0.82600
O1833       O  0.85221845  0.08701832  0.90517161    -0.80900
O1834       O  0.95374742  0.09851351  0.83684933    -0.85100
O1835       O  0.90196336  0.04612310  0.82919536    -0.80000
O1836       O  0.90986214  0.14226473  0.83883517    -0.81800
O1837       O  0.87966800  0.06451396  0.95105765    -0.84500
C1838       C  0.88535578  0.04527587  0.80284136     0.96300
C1839       C  0.95326961  0.11199303  0.80672960     1.03700
O1840       O  0.90357351  0.09209321  0.87418479    -1.13500
O1841       O  0.93026512  0.11836280  0.94975587    -0.75900
O1842       O  0.94847793  0.09491845  0.92261883    -0.79400
O1843       O  0.87891032  0.06369111  0.79930350    -0.80100
C1844       C  0.94888394  0.11204053  0.94765815     0.95200
O1845       O  0.89605291  0.04266526  0.91483003    -0.78000
O1846       O  0.90256192  0.14103023  0.90437805    -0.83200
C1847       C  0.84192613  0.08632262  0.87121857     0.97800
C1848       C  0.90947131  0.15370243  0.87119413     1.03700
O1849       O  0.85584568  0.09219210  0.83924106    -0.78900
C1850       C  0.88173742  0.04351846  0.94350201     1.02000
Fe1851     Fe  0.64382472  0.06983266  0.87357506     1.65800
Fe1852     Fe  0.70473694  0.10204752  0.92344779     1.73200
Fe1853     Fe  0.70351563  0.10190355  0.82175221     1.54400
O1854       O  0.67708295  0.06523904  0.79406189    -0.82600
O1855       O  0.72753314  0.14281648  0.90656573    -0.80900
O1856       O  0.64281194  0.04045292  0.83607183    -0.85100
O1857       O  0.63958998  0.09070172  0.82531620    -0.80000
O1858       O  0.72741728  0.08547386  0.83711971    -0.81800
O1859       O  0.67756896  0.11163729  0.95096402    -0.84500
C1860       C  0.65560849  0.10975332  0.80174015     0.96300
C1861       C  0.65595429  0.04295457  0.80411017     1.03700
O1862       O  0.68402182  0.09128962  0.87302272    -1.13500
O1863       O  0.68412761  0.06247995  0.94612246    -0.75900
O1864       O  0.64223462  0.04570303  0.92140267    -0.79400
O1865       O  0.68128486  0.11922279  0.80141706    -0.80100
C1866       C  0.65903238  0.04404569  0.94500149     0.95200
O1867       O  0.64104868  0.09712231  0.91130781    -0.78000
O1868       O  0.73493890  0.09428229  0.90219805    -0.83200
C1869       C  0.73890968  0.15387700  0.87361231     0.97800
C1870       C  0.74047328  0.08733280  0.86881483     1.03700
O1871       O  0.73310335  0.14019327  0.84147597    -0.78900
C1872       C  0.65495671  0.11009647  0.94169067     1.02000
C1873       C  0.81332866  0.08091567  0.86843908    -0.07100
C1874       C  0.80668084  0.09172470  0.83520837    -0.18200
C1875       C  0.78237342  0.09247994  0.83359406     0.10100
C1876       C  0.76399999  0.08262125  0.86630605    -0.07000
C1877       C  0.76970819  0.07027854  0.89854869    -0.18200
C1878       C  0.79373683  0.06862601  0.89945163     0.10200
S1879       S  0.77774865  0.10924969  0.79085922    -0.33200
S1880       S  0.79782499  0.05023594  0.94050544    -0.33200
H1881       H  0.81094193  0.03920781  0.91750148     0.28200
H1882       H  0.75485637  0.08496376  0.77714073     0.28200
H1883       H  0.82117253  0.10108283  0.81090467     0.18800
H1884       H  0.75538982  0.06193689  0.92324789     0.18800
C1885       C  0.81132657  0.23403258  0.87562819    -0.07100
C1886       C  0.79863958  0.22228856  0.83901261    -0.18200
C1887       C  0.77353401  0.19774364  0.83735049     0.10100
C1888       C  0.76110416  0.18329492  0.87314512    -0.07000
C1889       C  0.77220815  0.19651833  0.90971335    -0.18200
C1890       C  0.79651619  0.22192130  0.91131819     0.10200
S1891       S  0.75882921  0.18628512  0.78840868    -0.33200
S1892       S  0.80720968  0.23744330  0.95994546    -0.33200
H1893       H  0.81586908  0.26417579  0.94607294     0.28200
H1894       H  0.73186857  0.17760069  0.80111590     0.28200
H1895       H  0.80866626  0.23182596  0.81111720     0.18800
H1896       H  0.76233803  0.18671785  0.93756835     0.18800
C1897       C  0.91329014  0.23168513  0.86601382    -0.07100
C1898       C  0.92368050  0.22492553  0.89975174    -0.18200
C1899       C  0.92485285  0.20067854  0.90136726     0.10100
C1900       C  0.91485104  0.18222182  0.86892511    -0.07000
C1901       C  0.90645173  0.18990422  0.83415745    -0.18200
C1902       C  0.90570973  0.21425258  0.83209899     0.10200
S1903       S  0.93931763  0.19456704  0.94555214    -0.33200
S1904       S  0.89241466  0.22001546  0.78636631    -0.33200
H1905       H  0.91620561  0.24534359  0.77901652     0.28200
H1906       H  0.95070477  0.18065627  0.92542056     0.28200
H1907       H  0.93041704  0.23831752  0.92554254     0.18800
H1908       H  0.89891341  0.17609352  0.80883774     0.18800
C1909       C  0.97216879  0.12490067  0.97549721    -0.07100
C1910       C  0.49900992  0.14064829  0.95871232    -0.18200
C1911       C  0.52232120  0.15206787  0.98293272     0.10100
C1912       C  0.51962582  0.14981241  0.52675010    -0.07000
C1913       C  0.99290494  0.13157195  0.54055322    -0.18200
C1914       C  0.96963685  0.12145999  0.51633257     0.10200
S1915       S  0.55505235  0.17071486  0.95807162    -0.33200
S1916       S  0.93672916  0.10066742  0.53965252    -0.33200
H1917       H  0.92655879  0.12083428  0.02385762     0.28200
H1918       H  0.56821496  0.16617499  0.47988746     0.28200
H1919       H  0.50132751  0.14381117  0.92667243     0.18800
H1920       H  0.99028234  0.12728471  0.57231554     0.18800
C1921       C  0.52009807  0.14482003  0.72412591    -0.07100
C1922       C  0.50976442  0.16146153  0.73781914    -0.18200
C1923       C  0.48904299  0.15199526  0.76671721     0.10100
C1924       C  0.97724196  0.12470395  0.77983758    -0.07000
C1925       C  0.98973229  0.10936861  0.76959878    -0.18200
C1926       C  0.01037140  0.11870008  0.74069295     0.10200
S1927       S  0.47801739  0.17539174  0.78352519    -0.33200
S1928       S  0.02562355  0.09778791  0.73090438    -0.33200
H1929       H  0.51199400  0.09153718  0.68875174     0.28200
H1930       H  0.96882536  0.16533500  0.81488753     0.28200
H1931       H  0.51803208  0.18206670  0.72612110     0.18800
H1932       H  0.98284623  0.08956178  0.78343777     0.18800
C1933       C  0.64402049  0.12110625  0.77288404    -0.07100
C1934       C  0.65876849  0.14930212  0.76435327    -0.18200
C1935       C  0.64902419  0.16109528  0.73678387     0.10100
C1936       C  0.62346562  0.14452265  0.71788395    -0.07000
C1937       C  0.60906152  0.11622528  0.72572182    -0.18200
C1938       C  0.61920083  0.10431408  0.75233488     0.10200
S1939       S  0.67071570  0.19709978  0.72598640    -0.33200
S1940       S  0.60008195  0.06747239  0.75717056    -0.33200
H1941       H  0.62337740  0.06440322  0.75761069     0.28200
H1942       H  0.66439241  0.19468133  0.68497139     0.28200
H1943       H  0.67819714  0.16227289  0.77909945     0.18800
H1944       H  0.58959895  0.10319497  0.71108510     0.18800
C1945       C  0.64369610  0.12302567  0.96813100    -0.07100
C1946       C  0.61584929  0.10780797  0.97831915    -0.18200
C1947       C  0.60501576  0.12054754  0.50551962     0.10100
C1948       C  0.62135328  0.14692653  0.52231468    -0.07000
C1949       C  0.64916729  0.16226920  0.51171187    -0.18200
C1950       C  0.65992560  0.14960280  0.98421289     0.10200
S1951       S  0.56861826  0.09974847  0.51424627    -0.33200
S1952       S  0.69528864  0.17179482  0.97041910    -0.33200
H1953       H  0.69194358  0.16308040  0.93038444     0.28200
H1954       H  0.56354054  0.12179839  0.51333316     0.28200
H1955       H  0.60317079  0.08752788  0.96578088     0.18800
H1956       H  0.66178693  0.18261650  0.52402481     0.18800
C1957       C  0.62492522  0.47820853  0.52924317    -0.07100
C1958       C  0.65294443  0.99122266  0.52288675    -0.18200
C1959       C  0.66494743  0.01439370  0.49795729     0.10100
C1960       C  0.64811021  0.01987958  0.97265002    -0.07000
C1961       C  0.62679311  0.49826831  0.96301241    -0.18200
C1962       C  0.61555551  0.47486913  0.98727369     0.10200
S1963       S  0.70171845  0.03529090  0.49989387    -0.33200
S1964       S  0.58581936  0.44445098  0.96869529    -0.33200
H1965       H  0.59082680  0.42539220  0.98843161     0.28200
H1966       H  0.70483972  0.05309841  0.00746959     0.28200
H1967       H  0.66585969  0.98723077  0.54251525     0.18800
H1968       H  0.61782301  0.49693710  0.93387189     0.18800
C1969       C  0.64581230  0.01949908  0.77641222    -0.07100
C1970       C  0.64732353  0.02481691  0.73518590    -0.18200
C1971       C  0.63672234  0.00354266  0.70724045     0.10100
C1972       C  0.62916185  0.47843314  0.72716499    -0.07000
C1973       C  0.62790010  0.47367963  0.76848130    -0.18200
C1974       C  0.63837274  0.49544730  0.79572363     0.10200
S1975       S  0.64140710  0.01308403  0.65513583    -0.33200
S1976       S  0.63683411  0.48703194  0.84804246    -0.33200
H1977       H  0.65882010  0.00535338  0.85112132     0.28200
H1978       H  0.64968535  0.49147425  0.64899653     0.28200
H1979       H  0.65669218  0.04578360  0.72456835     0.18800
H1980       H  0.61825097  0.45282111  0.77964345     0.18800
C1981       C  0.97572330  0.35136906  0.78022309    -0.07100
C1982       C  0.98962375  0.37955762  0.77155990    -0.18200
C1983       C  0.51084547  0.39451162  0.74325117     0.10100
C1984       C  0.52109166  0.37840533  0.72640905    -0.07000
C1985       C  0.50924525  0.35072491  0.73745077    -0.18200
C1986       C  0.98565951  0.33487288  0.76355416     0.10200
S1987       S  0.52543351  0.43059225  0.73276830    -0.33200
S1988       S  0.97143652  0.29910112  0.77575916    -0.33200
H1989       H  0.96622884  0.30193301  0.81610892     0.28200
H1990       H  0.55279145  0.43641118  0.73186096     0.28200
H1991       H  0.98260492  0.39259562  0.78456858     0.18800
H1992       H  0.51725100  0.33834639  0.72507003     0.18800
C1993       C  0.52299886  0.37681791  0.52921070    -0.07100
C1994       C  0.01323876  0.35000252  0.50904705    -0.18200
C1995       C  0.99221465  0.33841574  0.48055683     0.10100
C1996       C  0.97448231  0.34958954  0.97315337    -0.07000
C1997       C  0.48531169  0.37804103  0.99291664    -0.18200
C1998       C  0.50667293  0.38964817  0.02058415     0.10200
S1999       S  0.98736150  0.30839405  0.45405218    -0.33200
S2000       S  0.51544495  0.42274693  0.04050278    -0.33200
H2001       H  0.49865407  0.42771130  0.51996690     0.28200
H2002       H  0.97849139  0.31657653  0.91375849     0.28200
H2003       H  0.02576491  0.34063493  0.51396767     0.18800
H2004       H  0.47410192  0.38858685  0.98625606     0.18800
C2005       C  0.58197277  0.31677962  0.63315890    -0.07100
C2006       C  0.57320212  0.30070194  0.59833817    -0.18200
C2007       C  0.57188783  0.27518851  0.59626317     0.10100
C2008       C  0.58048228  0.26564915  0.62934040    -0.07000
C2009       C  0.58751708  0.28095351  0.66494767    -0.18200
C2010       C  0.58853515  0.30629047  0.66730803     0.10200
S2011       S  0.55881557  0.25591257  0.55070132    -0.33200
S2012       S  0.60088198  0.32585632  0.71311490    -0.33200
H2013       H  0.60619765  0.30743836  0.73431664     0.28200
H2014       H  0.54469611  0.23028782  0.57000495     0.28200
H2015       H  0.56752019  0.30819410  0.57229031     0.18800
H2016       H  0.59388324  0.27382769  0.69060549     0.18800
C2017       C  0.85220267  0.47818391  0.72065173    -0.07100
C2018       C  0.85985173  0.00281933  0.70820551    -0.18200
C2019       C  0.87007932  0.02539834  0.73372126     0.10100
C2020       C  0.87330441  0.02196138  0.77489059    -0.07000
C2021       C  0.86111371  0.49653331  0.78808433    -0.18200
C2022       C  0.85120566  0.47405068  0.76244112     0.10200
S2023       S  0.88023950  0.05827307  0.71157928    -0.33200
S2024       S  0.83908631  0.44084093  0.78509369    -0.33200
H2025       H  0.85024852  0.43141452  0.75571129     0.28200
H2026       H  0.85841137  0.05981170  0.72941421     0.28200
H2027       H  0.85726030  0.00559348  0.67677898     0.18800
H2028       H  0.86057193  0.49309337  0.81983645     0.18800
C2029       C  0.84573517  0.47483602  0.52427488    -0.07100
C2030       C  0.84524748  0.46982341  0.98298124    -0.18200
C2031       C  0.85589148  0.49165939  0.95580092     0.10100
C2032       C  0.86771662  0.01953097  0.97043419    -0.07000
C2033       C  0.87421841  0.02447914  0.51294062    -0.18200
C2034       C  0.86332145  0.00269155  0.54007899     0.10200
S2035       S  0.85529375  0.48343821  0.90371675    -0.33200
S2036       S  0.87103650  0.01097392  0.59216088    -0.33200
H2037       H  0.82891015  0.48319379  0.59946282     0.28200
H2038       H  0.84628986  0.00614831  0.89228711     0.28200
H2039       H  0.83800173  0.44918324  0.97213246     0.18800
H2040       H  0.88718083  0.04513557  0.52395762     0.18800
C2041       C  0.84827807  0.36976658  0.52919906    -0.07100
C2042       C  0.84687767  0.37283591  0.48779882    -0.18200
C2043       C  0.85705252  0.36118516  0.46082353     0.10100
C2044       C  0.86842987  0.34619454  0.97492923    -0.07000
C2045       C  0.87129550  0.34428749  0.01631058    -0.18200
C2046       C  0.86085938  0.35564638  0.04356291     0.10200
S2047       S  0.85339098  0.36574378  0.40822101    -0.33200
S2048       S  0.86488581  0.35137138  0.09608700    -0.33200
H2049       H  0.83582137  0.34659474  0.60621461     0.28200
H2050       H  0.84509658  0.33543808  0.89793937     0.28200
H2051       H  0.83804368  0.38472930  0.47633538     0.18800
H2052       H  0.88226170  0.33439070  0.02747729     0.18800
C2053       C  0.87145168  0.35370209  0.77921331    -0.07100
C2054       C  0.84603985  0.33613683  0.76113171    -0.18200
C2055       C  0.83459940  0.34595608  0.73308418     0.10100
C2056       C  0.84870747  0.37408466  0.72301482    -0.07000
C2057       C  0.87379422  0.39168932  0.74147931    -0.18200
C2058       C  0.88537633  0.38192037  0.76913646     0.10200
S2059       S  0.80256119  0.32141115  0.71031807    -0.33200
S2060       S  0.91852860  0.40650937  0.78874053    -0.33200
H2061       H  0.93017498  0.38984713  0.78171942     0.28200
H2062       H  0.80842723  0.33405363  0.67253140     0.28200
H2063       H  0.83516033  0.31448096  0.76845737     0.18800
H2064       H  0.88458490  0.41335479  0.73415835     0.18800
C2065       C  0.68248015  0.41838958  0.62762574    -0.07100
C2066       C  0.69410839  0.41793218  0.59064486    -0.18200
C2067       C  0.71924947  0.41870713  0.58819575     0.10100
C2068       C  0.73289357  0.41855930  0.62373465    -0.07000
C2069       C  0.72247284  0.42149243  0.66049611    -0.18200
C2070       C  0.69799022  0.42212860  0.66274384     0.10200
S2071       S  0.73230452  0.41966328  0.53861890    -0.33200
S2072       S  0.68803099  0.42796924  0.71133597    -0.33200
H2073       H  0.67812628  0.44486385  0.69682825     0.28200
H2074       H  0.75951382  0.43911924  0.54858716     0.28200
H2075       H  0.68321259  0.41618587  0.56313205     0.18800
H2076       H  0.73304929  0.42260389  0.68807902     0.18800
C2077       C  0.72949885  0.31643563  0.62980642    -0.07100
C2078       C  0.72525697  0.29668123  0.60062861    -0.18200
C2079       C  0.70135020  0.27084552  0.60045009     0.10100
C2080       C  0.68109617  0.26454821  0.62995930    -0.07000
C2081       C  0.68621020  0.28352033  0.66049540    -0.18200
C2082       C  0.70953775  0.30938001  0.66032326     0.10200
S2083       S  0.69799693  0.24682625  0.56218923    -0.33200
S2084       S  0.71042073  0.33302649  0.69753036    -0.33200
H2085       H  0.71450688  0.35330793  0.66931107     0.28200
H2086       H  0.68200564  0.22322092  0.58539008     0.28200
H2087       H  0.74045981  0.30148875  0.57747826     0.18800
H2088       H  0.67070576  0.27913109  0.68303564     0.18800
Fe2089     Fe  0.84992041  0.92582377  0.12375314     1.65800
Fe2090     Fe  0.79053228  0.89590966  0.17717218     1.73200
Fe2091     Fe  0.78804425  0.89384483  0.07498264     1.54400
O2092       O  0.81064340  0.93219434  0.04917581    -0.82600
O2093       O  0.76042759  0.85770461  0.15937684    -0.80900
O2094       O  0.85181240  0.95136449  0.07792177    -0.85100
O2095       O  0.85164806  0.89879644  0.08415209    -0.80000
O2096       O  0.76030051  0.90507019  0.09517984    -0.81800
O2097       O  0.81247110  0.87830510  0.19852021    -0.84500
C2098       C  0.83630607  0.88382758  0.05616105     0.96300
C2099       C  0.83520313  0.95160536  0.05256010     1.03700
O2100       O  0.80950258  0.90517452  0.12519130    -1.13500
O2101       O  0.81758258  0.93253335  0.20395212    -0.75900
O2102       O  0.85310035  0.95533806  0.16309746    -0.79400
O2103       O  0.81290903  0.88098486  0.04885337    -0.80100
C2104       C  0.84012446  0.95355862  0.19490139     0.95200
O2105       O  0.85347616  0.90325170  0.16998610    -0.78000
O2106       O  0.76663770  0.91258671  0.16076848    -0.83200
C2107       C  0.75151284  0.84406261  0.12745993     0.97800
C2108       C  0.75480417  0.91233105  0.12826938     1.03700
O2109       O  0.76215417  0.85387715  0.09365963    -0.78900
C2110       C  0.83754469  0.88524677  0.19494362     1.02000
Fe2111     Fe  0.57145168  0.92551769  0.12599308     1.65800
Fe2112     Fe  0.59875357  0.89325756  0.17800018     1.73200
Fe2113     Fe  0.60028986  0.89337680  0.07617901     1.54400
O2114       O  0.56356262  0.88393842  0.04843059    -0.82600
O2115       O  0.63919130  0.90933655  0.16268186    -0.80900
O2116       O  0.54136952  0.89802887  0.08826380    -0.85100
O2117       O  0.59361127  0.94944777  0.07779758    -0.80000
O2118       O  0.58237115  0.85251563  0.09299101    -0.81800
O2119       O  0.60932292  0.92996351  0.20565899    -0.84500
C2120       C  0.61176690  0.95079378  0.05390925     0.96300
C2121       C  0.54248158  0.88567178  0.05722885     1.03700
O2122       O  0.59016942  0.90404962  0.12662129    -1.13500
O2123       O  0.55910400  0.87619734  0.19842315    -0.75900
O2124       O  0.54629908  0.90486872  0.17414113    -0.79400
O2125       O  0.61923157  0.93293138  0.05339176    -0.80100
C2126       C  0.54297471  0.88577354  0.19776093     0.95200
O2127       O  0.60001552  0.95490422  0.16364695    -0.78000
O2128       O  0.58962653  0.85500563  0.15828354    -0.83200
C2129       C  0.65088823  0.90849341  0.13083059     0.97800
C2130       C  0.58217141  0.84138352  0.12614182     1.03700
O2131       O  0.63836972  0.90148167  0.09746847    -0.78900
C2132       C  0.61071425  0.95233859  0.19556760     1.02000
Fe2133     Fe  0.56782869  0.64329341  0.12168639     1.65800
Fe2134     Fe  0.59980336  0.70545535  0.07306207     1.73200
Fe2135     Fe  0.59685536  0.70296697  0.17534226     1.54400
O2136       O  0.55857244  0.67781277  0.19927988    -0.82600
O2137       O  0.63905215  0.73199503  0.09276961    -0.80900
O2138       O  0.53951583  0.63919574  0.16402911    -0.85100
O2139       O  0.59204549  0.63969612  0.16512015    -0.80000
O2140       O  0.58287084  0.72901946  0.15762849    -0.81800
O2141       O  0.61427826  0.68185285  0.04768967    -0.84500
C2142       C  0.60766450  0.65501832  0.19274812     0.96300
C2143       C  0.53908507  0.65380593  0.19242274     1.03700
O2144       O  0.58821030  0.68387590  0.12334082    -1.13500
O2145       O  0.56214882  0.68202438  0.04625339    -0.75900
O2146       O  0.54113249  0.64190562  0.07826848    -0.79400
O2147       O  0.61167794  0.67898482  0.19924427    -0.80100
C2148       C  0.54203311  0.65796506  0.05088134     0.95200
O2149       O  0.59302111  0.64143422  0.07885027    -0.78000
O2150       O  0.58684977  0.73203243  0.09155323    -0.83200
C2151       C  0.64979510  0.74054614  0.12680444     0.97800
C2152       C  0.58088472  0.73890827  0.12446551     1.03700
O2153       O  0.63646554  0.73118542  0.15907989    -0.78900
C2154       C  0.60898408  0.65733005  0.05207250     1.02000
Fe2155     Fe  0.92494714  0.85532537  0.37802760     1.65800
Fe2156     Fe  0.89637601  0.79519962  0.32587346     1.73200
Fe2157     Fe  0.89798460  0.79383385  0.42801039     1.54400
O2158       O  0.93595926  0.81963376  0.45263252    -0.82600
O2159       O  0.85654144  0.76961276  0.34402655    -0.80900
O2160       O  0.95405971  0.85894920  0.41890407    -0.85100
O2161       O  0.89988902  0.85590897  0.42259099    -0.80000
O2162       O  0.91337147  0.76928135  0.40887388    -0.81800
O2163       O  0.88344045  0.81997816  0.29973675    -0.84500
C2164       C  0.88441564  0.83926434  0.44917805     0.96300
C2165       C  0.95538795  0.84376500  0.44583694     1.03700
O2166       O  0.90645742  0.81483135  0.37734443    -1.13500
O2167       O  0.93538741  0.81908418  0.30262282    -0.75900
O2168       O  0.95199366  0.85962478  0.33302592    -0.79400
O2169       O  0.88155539  0.81562888  0.45418870    -0.80100
C2170       C  0.95378296  0.84404777  0.30720981     0.95200
O2171       O  0.89867419  0.85741761  0.33707206    -0.78000
O2172       O  0.90726010  0.76685929  0.34342918    -0.83200
C2173       C  0.84544788  0.75841779  0.37707972     0.97800
C2174       C  0.91363936  0.75915122  0.37515599     1.03700
O2175       O  0.85877955  0.76487234  0.40970236    -0.78900
C2176       C  0.88560338  0.84302390  0.30716327     1.02000
Fe2177     Fe  0.92343428  0.57209615  0.37533359     1.65800
Fe2178     Fe  0.89339951  0.60289699  0.42683778     1.73200
Fe2179     Fe  0.89489834  0.60425493  0.32437144     1.52000
O2180       O  0.93399670  0.61981724  0.30160508    -0.82600
O2181       O  0.85479144  0.59199812  0.40730280    -0.80900
O2182       O  0.95116209  0.59665742  0.33251566    -0.85100
O2183       O  0.89840502  0.54492087  0.33206788    -0.80000
O2184       O  0.90663761  0.64312505  0.34435855    -0.81800
O2185       O  0.87751517  0.56385854  0.45019306    -0.84500
C2186       C  0.88510031  0.54651798  0.30256096     0.96300
C2187       C  0.95280505  0.61397381  0.30678204     1.03700
O2188       O  0.90392469  0.59306309  0.37552399    -1.13500
O2189       O  0.93056264  0.61513373  0.45330061    -0.75900
O2190       O  0.95112948  0.59682532  0.41824382    -0.79400
O2191       O  0.88227795  0.56717290  0.29657027    -0.80100
C2192       C  0.95054532  0.61133127  0.44681733     0.95200
O2193       O  0.89817375  0.54454303  0.41804451    -0.78000
O2194       O  0.90782642  0.64329909  0.41055849    -0.83200
C2195       C  0.84238883  0.58712342  0.37420182     0.97800
C2196       C  0.91107854  0.65556199  0.37748900     1.03700
O2197       O  0.85456218  0.58982444  0.34107588    -0.78900
C2198       C  0.88167834  0.54395954  0.44436928     1.02000
Fe2199     Fe  0.64546367  0.57282714  0.37583581     1.65800
Fe2200     Fe  0.70696682  0.60455490  0.42533476     1.73200
Fe2201     Fe  0.70543922  0.60493725  0.32311663     1.54400
O2202       O  0.68266946  0.56609938  0.29941792    -0.82600
O2203       O  0.73570494  0.64345026  0.40570166    -0.80900
O2204       O  0.64299449  0.54576387  0.33241637    -0.85100
O2205       O  0.64090621  0.59690467  0.33320627    -0.80000
O2206       O  0.73406416  0.59454160  0.34093634    -0.81800
O2207       O  0.68442725  0.62088119  0.44908601    -0.84500
C2208       C  0.65523265  0.61159173  0.30414656     0.96300
C2209       C  0.65885027  0.54583030  0.30543195     1.03700
O2210       O  0.68589158  0.59415889  0.37477436    -1.13500
O2211       O  0.68202897  0.56762858  0.45364824    -0.75900
O2212       O  0.64374750  0.54536975  0.41823843    -0.79400
O2213       O  0.67956022  0.61679276  0.29782633    -0.80100
C2214       C  0.65856402  0.54694126  0.44774002     0.95200
O2215       O  0.64343591  0.59731592  0.41967634    -0.78000
O2216       O  0.73120387  0.58876136  0.40675044    -0.83200
C2217       C  0.74232715  0.65639333  0.37274826     0.97800
C2218       C  0.74108247  0.58779182  0.37304277     1.03700
O2219       O  0.73071063  0.64499647  0.34029155    -0.78900
C2220       C  0.65955089  0.61464803  0.44507375     1.02000
C2221       C  0.81308075  0.57990570  0.37403836    -0.07100
C2222       C  0.80095213  0.57997839  0.33738245    -0.18200
C2223       C  0.77585632  0.57937055  0.33573404     0.10100
C2224       C  0.76300443  0.58033488  0.37171155    -0.07000
C2225       C  0.77352559  0.57705077  0.40806946    -0.18200
C2226       C  0.79777494  0.57601592  0.40958046     0.10200
S2227       S  0.76190914  0.57768206  0.28663981    -0.33200
S2228       S  0.80779475  0.56998887  0.45804179    -0.33200
H2229       H  0.81627561  0.55196979  0.44339578     0.28200
H2230       H  0.73491596  0.55833364  0.29790898     0.28200
H2231       H  0.81142247  0.58135699  0.30957550     0.18800
H2232       H  0.76327525  0.57606792  0.43593690     0.18800
C2233       C  0.81635365  0.73559068  0.37648393    -0.07100
C2234       C  0.80512586  0.72314317  0.33955979    -0.18200
C2235       C  0.77997424  0.69878680  0.33692355     0.10100
C2236       C  0.76558656  0.68535312  0.37231821    -0.07000
C2237       C  0.77572373  0.69896413  0.40902142    -0.18200
C2238       C  0.80036148  0.72407085  0.41138265     0.10200
S2239       S  0.76863243  0.68565520  0.28725233    -0.33200
S2240       S  0.80983061  0.74024174  0.45975078    -0.33200
H2241       H  0.81980678  0.76693339  0.44467089     0.28200
H2242       H  0.74288854  0.68367066  0.29240387     0.28200
H2243       H  0.81644893  0.73190819  0.31217069     0.18800
H2244       H  0.76456497  0.68981853  0.43640195     0.18800
C2245       C  0.91962491  0.73610375  0.37334223    -0.07100
C2246       C  0.92542614  0.72678544  0.40914623    -0.18200
C2247       C  0.92546325  0.70189550  0.41101639     0.10100
C2248       C  0.91839993  0.68499188  0.37666175    -0.07000
C2249       C  0.91541884  0.69566122  0.34022109    -0.18200
C2250       C  0.91639283  0.72087785  0.33793529     0.10200
S2251       S  0.93463880  0.69316325  0.45813716    -0.33200
S2252       S  0.91190234  0.73110642  0.28872854    -0.33200
H2253       H  0.93407050  0.75790251  0.29265900     0.28200
H2254       H  0.95035140  0.68279388  0.44066242     0.28200
H2255       H  0.92925016  0.73855891  0.43634270     0.18800
H2256       H  0.91119009  0.68380752  0.31303089     0.18800
C2257       C  0.97396280  0.62403861  0.47426525    -0.07100
C2258       C  0.50016314  0.63663964  0.45731661    -0.18200
C2259       C  0.52296158  0.64689776  0.48253607     0.10100
C2260       C  0.51861201  0.64796052  0.02309259    -0.07000
C2261       C  0.99308691  0.62801290  0.04044017    -0.18200
C2262       C  0.97044862  0.61501276  0.01503054     0.10200
S2263       S  0.55609299  0.65993368  0.45923058    -0.33200
S2264       S  0.93859487  0.58853972  0.03607972    -0.33200
H2265       H  0.92742240  0.57875142  0.50880487     0.28200
H2266       H  0.56821365  0.66126805  0.98191704     0.28200
H2267       H  0.50310498  0.63709435  0.42526439     0.18800
H2268       H  0.99051035  0.62211768  0.07165384     0.18800
C2269       C  0.51532351  0.64219947  0.21958947    -0.07100
C2270       C  0.50277682  0.65768243  0.22881966    -0.18200
C2271       C  0.48155305  0.64835848  0.25699354     0.10100
C2272       C  0.97704160  0.62643706  0.28028291    -0.07000
C2273       C  0.98668563  0.60938889  0.26594875    -0.18200
C2274       C  0.00802222  0.61883724  0.23824307     0.10200
S2275       S  0.46766221  0.67033856  0.26815248    -0.33200
S2276       S  0.01954090  0.59546161  0.22374690    -0.33200
H2277       H  0.51377932  0.59078022  0.19129455     0.28200
H2278       H  0.97453078  0.66725533  0.32544524     0.28200
H2279       H  0.50983316  0.67733976  0.21439252     0.18800
H2280       H  0.97713493  0.58823910  0.27582360     0.18800
C2281       C  0.64288052  0.62237956  0.27545186    -0.07100
C2282       C  0.65873635  0.64933077  0.26112065    -0.18200
C2283       C  0.64822965  0.66017250  0.23303346     0.10100
C2284       C  0.62092220  0.64403710  0.21945116    -0.07000
C2285       C  0.60531584  0.61688048  0.23306773    -0.18200
C2286       C  0.61606167  0.60579648  0.26025325     0.10200
S2287       S  0.67111044  0.69420622  0.21431122    -0.33200
S2288       S  0.59501431  0.56995704  0.27263547    -0.33200
H2289       H  0.61666708  0.56428291  0.27155103     0.28200
H2290       H  0.66058051  0.68888202  0.17516779     0.28200
H2291       H  0.67961546  0.66197693  0.27158117     0.18800
H2292       H  0.58450179  0.60411943  0.22241854     0.18800
C2293       C  0.64782790  0.62647957  0.47258158    -0.07100
C2294       C  0.62138846  0.60877340  0.48726158    -0.18200
C2295       C  0.60497478  0.62085639  0.00476562     0.10100
C2296       C  0.62112396  0.64642656  0.02379280    -0.07000
C2297       C  0.64921865  0.66195631  0.01502265    -0.18200
C2298       C  0.66193321  0.65409514  0.48527073     0.10200
S2299       S  0.56834577  0.59994630  0.01132229    -0.33200
S2300       S  0.69555912  0.67887280  0.46725364    -0.33200
H2301       H  0.69140557  0.66838908  0.42814621     0.28200
H2302       H  0.56325442  0.62182772  0.01504641     0.28200
H2303       H  0.61046088  0.58749324  0.47790365     0.18800
H2304       H  0.66159698  0.68180933  0.02895927     0.18800
C2305       C  0.62392744  0.97376588  0.02486284    -0.07100
C2306       C  0.64931210  0.50091917  0.03821881    -0.18200
C2307       C  0.66032351  0.52448390  0.01422367     0.10100
C2308       C  0.64774294  0.52375854  0.47651691    -0.07000
C2309       C  0.61964221  0.00177767  0.47307971    -0.18200
C2310       C  0.60783688  0.97871884  0.49775730     0.10200
S2311       S  0.68688608  0.55584585  0.03599570    -0.33200
S2312       S  0.57139666  0.95588007  0.49341590    -0.33200
H2313       H  0.57253842  0.93170222  0.49880252     0.28200
H2314       H  0.65875950  0.57268727  0.51723343     0.28200
H2315       H  0.65758495  0.50215382  0.06786599     0.18800
H2316       H  0.60619201  0.00518885  0.45380313     0.18800
C2317       C  0.64879871  0.52181194  0.27862871    -0.07100
C2318       C  0.65691604  0.52637057  0.23828417    -0.18200
C2319       C  0.64639650  0.50489380  0.21059624     0.10100
C2320       C  0.62459175  0.97587291  0.22310651    -0.07000
C2321       C  0.62119374  0.97081528  0.26446320    -0.18200
C2322       C  0.63238276  0.99229881  0.29211932     0.10200
S2323       S  0.65905677  0.51281239  0.16000698    -0.33200
S2324       S  0.62853666  0.98326075  0.34442470    -0.33200
H2325       H  0.64583265  0.50403231  0.35864908     0.28200
H2326       H  0.65189218  0.98881376  0.14874470     0.28200
H2327       H  0.67127216  0.54691805  0.22801789     0.18800
H2328       H  0.60955291  0.94993008  0.27539419     0.18800
C2329       C  0.97789516  0.85601990  0.28035202    -0.07100
C2330       C  0.98681346  0.88222839  0.26432481    -0.18200
C2331       C  0.51172811  0.89158729  0.24624710     0.10100
C2332       C  0.51970953  0.87457515  0.22612658    -0.07000
C2333       C  0.50564116  0.84631287  0.23423998    -0.18200
C2334       C  0.99171503  0.84188240  0.26934151     0.10200
S2335       S  0.52998199  0.92845019  0.24163325    -0.33200
S2336       S  0.98435939  0.80971091  0.29145896    -0.33200
H2337       H  0.97729914  0.81510440  0.32936207     0.28200
H2338       H  0.55617330  0.93109035  0.24199946     0.28200
H2339       H  0.97687383  0.89360161  0.27322212     0.18800
H2340       H  0.51192964  0.83314774  0.21968498     0.18800
C2341       C  0.51858706  0.87307250  0.02960615    -0.07100
C2342       C  0.01333733  0.85166079  0.01245141    -0.18200
C2343       C  0.99191542  0.84035601  0.98463507     0.10100
C2344       C  0.98023998  0.85514501  0.47131605    -0.07000
C2345       C  0.48143881  0.87226169  0.49430256    -0.18200
C2346       C  0.50285758  0.88393992  0.52178914     0.10200
S2347       S  0.98139932  0.80640128  0.96623173    -0.33200
S2348       S  0.50801297  0.91440072  0.54702926    -0.33200
H2349       H  0.49623625  0.89809587  0.08814053     0.28200
H2350       H  0.97304669  0.80718102  0.43323276     0.28200
H2351       H  0.02204468  0.83937427  0.02265342     0.18800
H2352       H  0.46875657  0.88154699  0.49013681     0.18800
C2353       C  0.57475306  0.81191882  0.12707757    -0.07100
C2354       C  0.57120676  0.79801792  0.09071313    -0.18200
C2355       C  0.56955330  0.77237635  0.08926977     0.10100
C2356       C  0.57342239  0.76089586  0.12469276    -0.07000
C2357       C  0.57350433  0.77308766  0.16135700    -0.18200
C2358       C  0.57335622  0.79789346  0.16311672     0.10200
S2359       S  0.56227917  0.75555474  0.04133661    -0.33200
S2360       S  0.57167949  0.81097613  0.21184009    -0.33200
H2361       H  0.56527028  0.78723464  0.23393690     0.28200
H2362       H  0.54536718  0.72912871  0.05719858     0.28200
H2363       H  0.57030379  0.80739864  0.06287453     0.18800
H2364       H  0.57495797  0.76383304  0.18894898     0.18800
C2365       C  0.85193258  0.97665093  0.22306807    -0.07100
C2366       C  0.86334533  0.50454127  0.20649397    -0.18200
C2367       C  0.87323020  0.52720728  0.23205208     0.10100
C2368       C  0.87268299  0.52333520  0.27396807    -0.07000
C2369       C  0.86519901  0.99526452  0.29004408    -0.18200
C2370       C  0.85479036  0.97281187  0.26418094     0.10200
S2371       S  0.88784465  0.56058847  0.20932045    -0.33200
S2372       S  0.84676728  0.94009761  0.28512224    -0.33200
H2373       H  0.85596169  0.93170598  0.25185859     0.28200
H2374       H  0.86720558  0.56524871  0.22443338     0.28200
H2375       H  0.86408828  0.50778214  0.17443864     0.18800
H2376       H  0.86742074  0.99219603  0.32152238     0.18800
C2377       C  0.84516784  0.97528529  0.02518123    -0.07100
C2378       C  0.84092974  0.97115077  0.48506045    -0.18200
C2379       C  0.85188474  0.99302467  0.45785055     0.10100
C2380       C  0.86756766  0.51952561  0.47052479    -0.07000
C2381       C  0.86422823  0.52300955  0.01080537    -0.18200
C2382       C  0.85338667  0.50113929  0.03789837     0.10200
S2383       S  0.84288734  0.98520110  0.40588917    -0.33200
S2384       S  0.85163619  0.50879093  0.08974609    -0.33200
H2385       H  0.83701491  0.98815280  0.10335819     0.28200
H2386       H  0.85182312  0.50427163  0.39053086     0.28200
H2387       H  0.82815376  0.95044745  0.47402939     0.18800
H2388       H  0.87183249  0.54362383  0.02198385     0.18800
C2389       C  0.84657516  0.86997574  0.02980200    -0.07100
C2390       C  0.84319182  0.87101715  0.98838542    -0.18200
C2391       C  0.85464351  0.86056544  0.96146615     0.10100
C2392       C  0.86960610  0.84809914  0.47616394    -0.07000
C2393       C  0.87226814  0.84612694  0.51754724    -0.18200
C2394       C  0.86073523  0.85641793  0.54470966     0.10200
S2395       S  0.84885000  0.86274013  0.90887811    -0.33200
S2396       S  0.86520614  0.85251455  0.59724112    -0.33200
H2397       H  0.83978184  0.84979857  0.10880040     0.28200
H2398       H  0.84793995  0.83776050  0.39816260     0.28200
H2399       H  0.83206518  0.88063821  0.97682471     0.18800
H2400       H  0.88395349  0.83702249  0.52880949     0.18800
C2401       C  0.87326734  0.85392109  0.27875960    -0.07100
C2402       C  0.84682816  0.83639460  0.26379519    -0.18200
C2403       C  0.83478643  0.84565119  0.23569586     0.10100
C2404       C  0.84933745  0.87320864  0.22239984    -0.07000
C2405       C  0.87585144  0.89054627  0.23714492    -0.18200
C2406       C  0.88799628  0.88122410  0.26464232     0.10200
S2407       S  0.80137487  0.82103765  0.21693177    -0.33200
S2408       S  0.92290158  0.90486451  0.27885091    -0.33200
H2409       H  0.93117035  0.88512116  0.27725437     0.28200
H2410       H  0.80651202  0.83120599  0.17755322     0.28200
H2411       H  0.83555611  0.81526760  0.27383158     0.18800
H2412       H  0.88731630  0.91167830  0.22716807     0.18800
C2413       C  0.67993002  0.91490807  0.13265720    -0.07100
C2414       C  0.69565085  0.92271515  0.09736164    -0.18200
C2415       C  0.72158757  0.92498884  0.09587410     0.10100
C2416       C  0.73180480  0.91811871  0.12996445    -0.07000
C2417       C  0.71711500  0.91251323  0.16593755    -0.18200
C2418       C  0.69172839  0.91119389  0.16788350     0.10200
S2419       S  0.74053897  0.93690344  0.04974221    -0.33200
S2420       S  0.67473518  0.90217704  0.21571488    -0.33200
H2421       H  0.67386918  0.92668802  0.21841042     0.28200
H2422       H  0.76642926  0.95073798  0.06822734     0.28200
H2423       H  0.68755417  0.92678438  0.07047154     0.18800
H2424       H  0.72469058  0.90756830  0.19260342     0.18800
C2425       C  0.72695730  0.81614303  0.12984257    -0.07100
C2426       C  0.72216826  0.79686680  0.09963560    -0.18200
C2427       C  0.69814781  0.77108483  0.09912760     0.10100
C2428       C  0.67811218  0.76428541  0.12929633    -0.07000
C2429       C  0.68367671  0.78291157  0.16057533    -0.18200
C2430       C  0.70721317  0.80872429  0.16077263     0.10200
S2431       S  0.69450705  0.74779793  0.05952309    -0.33200
S2432       S  0.70876045  0.83197188  0.19915074    -0.33200
H2433       H  0.71370509  0.85307050  0.17197346     0.28200
H2434       H  0.68007815  0.72393218  0.08285212     0.28200
H2435       H  0.73713261  0.80196625  0.07602612     0.18800
H2436       H  0.66845248  0.77828499  0.18365037     0.18800
Fe2437     Fe  0.85006250  0.92519682  0.62429439     1.65800
Fe2438     Fe  0.79064089  0.89618136  0.67741872     1.73200
Fe2439     Fe  0.78841812  0.89442085  0.57531450     1.54400
O2440       O  0.81138690  0.93286839  0.55008634    -0.82600
O2441       O  0.75993582  0.85840094  0.65927633    -0.80900
O2442       O  0.85273247  0.95053416  0.57778156    -0.85100
O2443       O  0.85127496  0.89748412  0.58543024    -0.80000
O2444       O  0.76104672  0.90618064  0.59575326    -0.81800
O2445       O  0.81163808  0.87757627  0.69847061    -0.84500
C2446       C  0.83610458  0.88316154  0.55681882     0.96300
C2447       C  0.83626047  0.95162051  0.55303915     1.03700
O2448       O  0.80970649  0.90522399  0.62554722    -1.13500
O2449       O  0.81828441  0.93238653  0.70446173    -0.75900
O2450       O  0.85337697  0.95518158  0.66287992    -0.79400
O2451       O  0.81312853  0.88125372  0.54898653    -0.80100
C2452       C  0.84064164  0.95345797  0.69494133     0.95200
O2453       O  0.85299807  0.90280916  0.67118198    -0.78000
O2454       O  0.76780970  0.91401392  0.66123912    -0.83200
C2455       C  0.75125259  0.84469439  0.62738906     0.97800
C2456       C  0.75603834  0.91395717  0.62880683     1.03700
O2457       O  0.76222307  0.85446234  0.59372412    -0.78900
C2458       C  0.83675830  0.88460556  0.69562538     1.02000
Fe2459     Fe  0.57150022  0.92462389  0.62366681     1.65800
Fe2460     Fe  0.59976416  0.89362522  0.67619053     1.73200
Fe2461     Fe  0.60206713  0.89412369  0.57451111     1.54400
O2462       O  0.56530626  0.88415910  0.54579690    -0.82600
O2463       O  0.64045023  0.91089881  0.66157874    -0.80900
O2464       O  0.54199962  0.89640889  0.58653443    -0.85100
O2465       O  0.59329124  0.94859468  0.57522082    -0.80000
O2466       O  0.58452347  0.85350525  0.59092612    -0.81800
O2467       O  0.60916733  0.93016412  0.70355920    -0.84500
C2468       C  0.61235883  0.95077498  0.55252933     0.96300
C2469       C  0.54371777  0.88487494  0.55504740     1.03700
O2470       O  0.59114059  0.90412801  0.62471825    -1.13500
O2471       O  0.55978648  0.87543908  0.69598620    -0.75900
O2472       O  0.54654011  0.90375482  0.67175433    -0.79400
O2473       O  0.62075339  0.93368485  0.55276921    -0.80100
C2474       C  0.54334076  0.88464661  0.69522185     0.95200
O2475       O  0.59942171  0.95450515  0.66107110    -0.78000
O2476       O  0.59189234  0.85570637  0.65625306    -0.83200
C2477       C  0.65255096  0.91028603  0.63004635     0.97800
C2478       C  0.58456058  0.84231659  0.62384363     1.03700
O2479       O  0.64022605  0.90278750  0.59656691    -0.78900
C2480       C  0.61015980  0.95233716  0.69318029     1.02000
Fe2481     Fe  0.56894407  0.64324525  0.62373607     1.65800
Fe2482     Fe  0.60025331  0.70443531  0.57292297     1.73200
Fe2483     Fe  0.59695995  0.70368139  0.67523667     1.54400
O2484       O  0.55838743  0.67904606  0.69867608    -0.82600
O2485       O  0.63934420  0.73161957  0.59255047    -0.80900
O2486       O  0.54096595  0.63929165  0.66648827    -0.85100
O2487       O  0.59423955  0.64125185  0.66661635    -0.80000
O2488       O  0.58351988  0.72967326  0.65557397    -0.81800
O2489       O  0.61510159  0.68083592  0.54901431    -0.84500
C2490       C  0.60890757  0.65670839  0.69484139     0.96300
C2491       C  0.53967514  0.65446112  0.69324542     1.03700
O2492       O  0.58873193  0.68378088  0.62394369    -1.13500
O2493       O  0.56265666  0.68007126  0.54649099    -0.75900
O2494       O  0.54149055  0.64075724  0.58073466    -0.79400
O2495       O  0.61138843  0.68004771  0.70146093    -0.80100
C2496       C  0.54244169  0.65621241  0.55237230     0.95200
O2497       O  0.59387541  0.64090600  0.58103072    -0.78000
O2498       O  0.58714045  0.73112602  0.58952918    -0.83200
C2499       C  0.65005073  0.74054212  0.62651965     0.97800
C2500       C  0.58166483  0.73900541  0.62188469     1.03700
O2501       O  0.63670827  0.73141562  0.65887034    -0.78900
C2502       C  0.60991000  0.65641677  0.55407659     1.02000
Fe2503     Fe  0.92441888  0.85483832  0.87777450     1.65800
Fe2504     Fe  0.89397149  0.79384650  0.82748676     1.73200
Fe2505     Fe  0.89808585  0.79410926  0.92935530     1.54400
O2506       O  0.93625092  0.82005921  0.95280406    -0.82600
O2507       O  0.85417663  0.76894908  0.84746001    -0.80900
O2508       O  0.95384033  0.85910792  0.91849614    -0.85100
O2509       O  0.89984864  0.85612224  0.92237717    -0.80000
O2510       O  0.91307390  0.76921789  0.91017318    -0.81800
O2511       O  0.88119361  0.81863823  0.80123636    -0.84500
C2512       C  0.88467607  0.83978879  0.94946771     0.96300
C2513       C  0.95539812  0.84422774  0.94566350     1.03700
O2514       O  0.90557823  0.81433767  0.87821584    -1.13500
O2515       O  0.93278167  0.81703591  0.80254337    -0.75900
O2516       O  0.95076748  0.85793901  0.83242806    -0.79400
O2517       O  0.88203716  0.81630413  0.95523184    -0.80100
C2518       C  0.95172021  0.84190660  0.80653724     0.95200
O2519       O  0.89801248  0.85680048  0.83715654    -0.78000
O2520       O  0.90444319  0.76530844  0.84535093    -0.83200
C2521       C  0.84425476  0.75823972  0.88128922     0.97800
C2522       C  0.91177415  0.75812096  0.87666683     1.03700
O2523       O  0.85882543  0.76514665  0.91263202    -0.78900
C2524       C  0.88418006  0.84207709  0.80800820     1.02000
Fe2525     Fe  0.92284675  0.57108363  0.87504402     1.65800
Fe2526     Fe  0.89306013  0.60223629  0.92653341     1.73200
Fe2527     Fe  0.89543939  0.60424233  0.82415419     1.52000
O2528       O  0.93457036  0.61951720  0.80192330    -0.82600
O2529       O  0.85470122  0.59229729  0.90640755    -0.80900
O2530       O  0.95070032  0.59510602  0.83174723    -0.85100
O2531       O  0.89741949  0.54408479  0.83210814    -0.80000
O2532       O  0.90710205  0.64293979  0.84473623    -0.81800
O2533       O  0.87629120  0.56297323  0.94905883    -0.84500
C2534       C  0.88481101  0.54627590  0.80218114     0.96300
C2535       C  0.95283687  0.61284935  0.80639224     1.03700
O2536       O  0.90382598  0.59254108  0.87527044    -1.13500
O2537       O  0.92995100  0.61346321  0.95363179    -0.75900
O2538       O  0.95080667  0.59578446  0.91768765    -0.79400
O2539       O  0.88277307  0.56735417  0.79591901    -0.80100
C2540       C  0.95005397  0.60988192  0.94671863     0.95200
O2541       O  0.89740795  0.54373291  0.91796406    -0.78000
O2542       O  0.90813127  0.64289254  0.91098366    -0.83200
C2543       C  0.84275069  0.58776414  0.87291305     0.97800
C2544       C  0.91119244  0.65519152  0.87798054     1.03700
O2545       O  0.85515397  0.59013057  0.84014008    -0.78900
C2546       C  0.88053176  0.54310387  0.94366182     1.02000
Fe2547     Fe  0.64581852  0.57324890  0.87654596     1.65800
Fe2548     Fe  0.70632800  0.60449417  0.92701174     1.73200
Fe2549     Fe  0.70562046  0.60629593  0.82526010     1.54400
O2550       O  0.67944530  0.56930407  0.79756288    -0.82600
O2551       O  0.72978617  0.64518294  0.91150653    -0.80900
O2552       O  0.64555498  0.54387118  0.83993259    -0.85100
O2553       O  0.64146647  0.59358560  0.82772124    -0.80000
O2554       O  0.73002835  0.59026644  0.83987673    -0.81800
O2555       O  0.67926078  0.61435463  0.95432112    -0.84500
C2556       C  0.65728626  0.61327254  0.80494460     0.96300
C2557       C  0.65897650  0.54655663  0.80817665     1.03700
O2558       O  0.68599583  0.59476557  0.87638155    -1.13500
O2559       O  0.68532727  0.56492342  0.94877836    -0.75900
O2560       O  0.64330794  0.54919537  0.92507585    -0.79400
O2561       O  0.68307016  0.62355247  0.80539029    -0.80100
C2562       C  0.66001846  0.54723586  0.94837400     0.95200
O2563       O  0.64341506  0.60101105  0.91342207    -0.78000
O2564       O  0.73596241  0.59603263  0.90552685    -0.83200
C2565       C  0.74105840  0.65713088  0.87902505     0.97800
C2566       C  0.74191197  0.58993938  0.87175067     1.03700
O2567       O  0.73491564  0.64462328  0.84578120    -0.78900
C2568       C  0.65704110  0.61346808  0.94430638     1.02000
C2569       C  0.81381549  0.58159815  0.87165702    -0.07100
C2570       C  0.80386174  0.58589515  0.83552050    -0.18200
C2571       C  0.77930328  0.58628828  0.83378300     0.10100
C2572       C  0.76445325  0.58344415  0.86948417    -0.07000
C2573       C  0.77313042  0.57667784  0.90492213    -0.18200
C2574       C  0.79702915  0.57490317  0.90614885     0.10200
S2575       S  0.76952623  0.59236530  0.78522858    -0.33200
S2576       S  0.80458066  0.56378138  0.95258127    -0.33200
H2577       H  0.81485416  0.54828791  0.93411459     0.28200
H2578       H  0.74374379  0.56823741  0.78643784     0.28200
H2579       H  0.81583566  0.59016633  0.80839557     0.18800
H2580       H  0.76137912  0.57302492  0.93215632     0.18800
C2581       C  0.81501394  0.73570362  0.88364120    -0.07100
C2582       C  0.79933751  0.72738472  0.84830776    -0.18200
C2583       C  0.77375319  0.70330556  0.84675800     0.10100
C2584       C  0.76381521  0.68609904  0.88076691    -0.07000
C2585       C  0.77809944  0.69570840  0.91694511    -0.18200
C2586       C  0.80299910  0.72037725  0.91907087     0.10200
S2587       S  0.75487287  0.69595468  0.80059514    -0.33200
S2588       S  0.81823973  0.73016814  0.96800618    -0.33200
H2589       H  0.82348877  0.75729774  0.96446602     0.28200
H2590       H  0.72901436  0.68418972  0.81922213     0.28200
H2591       H  0.80724402  0.73937959  0.82122537     0.18800
H2592       H  0.77038482  0.68341273  0.94381994     0.18800
C2593       C  0.91725971  0.73475526  0.87453755    -0.07100
C2594       C  0.92452500  0.72613406  0.90974999    -0.18200
C2595       C  0.92512859  0.70150633  0.91136089     0.10100
C2596       C  0.91749371  0.68430485  0.87728584    -0.07000
C2597       C  0.91248406  0.69406814  0.84144398    -0.18200
C2598       C  0.91249949  0.71880482  0.83944556     0.10200
S2599       S  0.93570291  0.69343697  0.95781863    -0.33200
S2600       S  0.90455009  0.72728284  0.79114405    -0.33200
H2601       H  0.92742554  0.75388702  0.79116157     0.28200
H2602       H  0.95107381  0.68301316  0.93939748     0.28200
H2603       H  0.92915047  0.73828873  0.93670024     0.18800
H2604       H  0.90725940  0.68176526  0.81457562     0.18800
C2605       C  0.97339762  0.62233928  0.97427866    -0.07100
C2606       C  0.49895604  0.64190111  0.95653543    -0.18200
C2607       C  0.52203298  0.65278875  0.98133147     0.10100
C2608       C  0.51917555  0.64576499  0.52445818    -0.07000
C2609       C  0.99346210  0.63275873  0.54093769    -0.18200
C2610       C  0.97052769  0.62022455  0.51604108     0.10200
S2611       S  0.55507634  0.67136598  0.95728306    -0.33200
S2612       S  0.93765182  0.59859638  0.53927576    -0.33200
H2613       H  0.92983985  0.57189829  0.00178731     0.28200
H2614       H  0.56729896  0.65091501  0.48903988     0.28200
H2615       H  0.50165403  0.64504106  0.92452798     0.18800
H2616       H  0.99070294  0.62949287  0.57291559     0.18800
C2617       C  0.51579262  0.64278334  0.72012800    -0.07100
C2618       C  0.50154403  0.65699699  0.72625453    -0.18200
C2619       C  0.47988870  0.64749296  0.75372015     0.10100
C2620       C  0.97694945  0.62497532  0.77950346    -0.07000
C2621       C  0.98664875  0.60786868  0.76545439    -0.18200
C2622       C  0.00766285  0.61707156  0.73712744     0.10200
S2623       S  0.46367983  0.66786575  0.76061786    -0.33200
S2624       S  0.01945911  0.59386784  0.72293497    -0.33200
H2625       H  0.51802887  0.59208272  0.69817511     0.28200
H2626       H  0.97542805  0.66682614  0.82358660     0.28200
H2627       H  0.50755687  0.67579270  0.70989040     0.18800
H2628       H  0.97739225  0.58688753  0.77599785     0.18800
C2629       C  0.64515788  0.62417959  0.77615223    -0.07100
C2630       C  0.65795562  0.65260785  0.76987353    -0.18200
C2631       C  0.64727323  0.66386519  0.74277965     0.10100
C2632       C  0.62271111  0.64639602  0.72188392    -0.07000
C2633       C  0.61027112  0.61792388  0.72781309    -0.18200
C2634       C  0.62136455  0.60668174  0.75398126     0.10200
S2635       S  0.66665253  0.70046876  0.73525806    -0.33200
S2636       S  0.60484167  0.56977492  0.75616472    -0.33200
H2637       H  0.62942724  0.56904980  0.75761019     0.28200
H2638       H  0.66301318  0.69898328  0.69353717     0.28200
H2639       H  0.67656034  0.66618838  0.78606082     0.18800
H2640       H  0.59164882  0.60414255  0.71182900     0.18800
C2641       C  0.64553573  0.62613468  0.97062277    -0.07100
C2642       C  0.61738151  0.61099046  0.97880053    -0.18200
C2643       C  0.60853837  0.61789748  0.51360927     0.10100
C2644       C  0.62264635  0.64546744  0.52673417    -0.07000
C2645       C  0.64924415  0.66321819  0.51230181    -0.18200
C2646       C  0.66158705  0.65214894  0.98852031     0.10200
S2647       S  0.57376298  0.59336019  0.52767875    -0.33200
S2648       S  0.69753859  0.67409800  0.97785597    -0.33200
H2649       H  0.69564491  0.66650667  0.93743430     0.28200
H2650       H  0.56385462  0.61172171  0.52370132     0.28200
H2651       H  0.60488425  0.59110553  0.96498600     0.18800
H2652       H  0.66016393  0.68443183  0.52190159     0.18800
C2653       C  0.62448350  0.97370097  0.52380863    -0.07100
C2654       C  0.64146478  0.50491699  0.54377988    -0.18200
C2655       C  0.65251439  0.52766142  0.51820311     0.10100
C2656       C  0.64927535  0.52320354  0.97568339    -0.07000
C2657       C  0.61949310  0.00424852  0.97779713    -0.18200
C2658       C  0.60735849  0.98140802  0.00299173     0.10200
S2659       S  0.67084510  0.56104427  0.54118014    -0.33200
S2660       S  0.57040286  0.96218981  0.00446679    -0.33200
H2661       H  0.56848013  0.93632993  0.00649219     0.28200
H2662       H  0.67600970  0.57201111  0.02197006     0.28200
H2663       H  0.64540076  0.50816326  0.57547354     0.18800
H2664       H  0.60615246  0.00969181  0.96186001     0.18800
C2665       C  0.64993977  0.52268566  0.78141703    -0.07100
C2666       C  0.65215310  0.52736193  0.74000041    -0.18200
C2667       C  0.64216569  0.50564512  0.71288046     0.10100
C2668       C  0.62358760  0.97603151  0.72064088    -0.07000
C2669       C  0.62264709  0.97077956  0.76190462    -0.18200
C2670       C  0.63387164  0.99209374  0.78976763     0.10200
S2671       S  0.64702781  0.51406944  0.66048707    -0.33200
S2672       S  0.63295521  0.98289899  0.84165264    -0.33200
H2673       H  0.66228786  0.50999736  0.85775131     0.28200
H2674       H  0.64778646  0.99289254  0.64353328     0.28200
H2675       H  0.66135157  0.54811917  0.72855394     0.18800
H2676       H  0.61294148  0.94983607  0.77269467     0.18800
C2677       C  0.97555497  0.85338972  0.77896392    -0.07100
C2678       C  0.98508376  0.87988444  0.76360207    -0.18200
C2679       C  0.51184097  0.89016592  0.74344253     0.10100
C2680       C  0.51992209  0.87321637  0.72337747    -0.07000
C2681       C  0.50565566  0.84489359  0.73110719    -0.18200
C2682       C  0.98883162  0.83884660  0.76718355     0.10200
S2683       S  0.52984000  0.92701544  0.73857252    -0.33200
S2684       S  0.98038182  0.80599357  0.78797704    -0.33200
H2685       H  0.97408769  0.81134063  0.82644745     0.28200
H2686       H  0.55612520  0.92989486  0.73949788     0.28200
H2687       H  0.97556980  0.89156791  0.77300135     0.18800
H2688       H  0.51187636  0.83174154  0.71633390     0.18800
C2689       C  0.51977218  0.87225842  0.52773481    -0.07100
C2690       C  0.01244638  0.85031525  0.51438321    -0.18200
C2691       C  0.99053671  0.83879664  0.48738169     0.10100
C2692       C  0.98009538  0.85593266  0.97120342    -0.07000
C2693       C  0.48020213  0.87260980  0.99538230    -0.18200
C2694       C  0.50086350  0.88390730  0.02421580     0.10200
S2695       S  0.97744010  0.80344847  0.47359003    -0.33200
S2696       S  0.50393952  0.91273950  0.05186103    -0.33200
H2697       H  0.49878371  0.90071744  0.58388150     0.28200
H2698       H  0.97552120  0.81129871  0.92722008     0.28200
H2699       H  0.01990460  0.83750318  0.52690799     0.18800
H2700       H  0.46682488  0.88114650  0.99164959     0.18800
C2701       C  0.57743609  0.81302658  0.62387730    -0.07100
C2702       C  0.57650780  0.80053688  0.58710109    -0.18200
C2703       C  0.57461207  0.77485531  0.58515013     0.10100
C2704       C  0.57505770  0.76156022  0.62093674    -0.07000
C2705       C  0.57285915  0.77260526  0.65752833    -0.18200
C2706       C  0.57350775  0.79778705  0.65946851     0.10200
S2707       S  0.57213225  0.76080997  0.53589440    -0.33200
S2708       S  0.56955145  0.80984444  0.70780993    -0.33200
H2709       H  0.56199998  0.78562375  0.72936697     0.28200
H2710       H  0.55196511  0.73408943  0.54705639     0.28200
H2711       H  0.57803774  0.81115103  0.55933412     0.18800
H2712       H  0.57189768  0.76211072  0.68512660     0.18800
C2713       C  0.85236618  0.97670301  0.72276668    -0.07100
C2714       C  0.86370106  0.50494622  0.70569423    -0.18200
C2715       C  0.87343181  0.52746814  0.73146861     0.10100
C2716       C  0.87236084  0.52332800  0.77333947    -0.07000
C2717       C  0.86619254  0.99584489  0.78928782    -0.18200
C2718       C  0.85576917  0.97322908  0.76380441     0.10200
S2719       S  0.88847882  0.56097230  0.70901726    -0.33200
S2720       S  0.84823006  0.94077725  0.78522201    -0.33200
H2721       H  0.85692276  0.93205273  0.75178155     0.28200
H2722       H  0.86786783  0.56578903  0.72381461     0.28200
H2723       H  0.86482127  0.50831686  0.67381270     0.18800
H2724       H  0.86906776  0.99306670  0.82063518     0.18800
C2725       C  0.84670165  0.97558301  0.52609544    -0.07100
C2726       C  0.84266181  0.97044201  0.98384775    -0.18200
C2727       C  0.85372091  0.99217652  0.95639292     0.10100
C2728       C  0.86615735  0.51875770  0.96984964    -0.07000
C2729       C  0.86510193  0.52352677  0.51143118    -0.18200
C2730       C  0.85422518  0.50152094  0.53833473     0.10200
S2731       S  0.84887810  0.98355439  0.90404577    -0.33200
S2732       S  0.85169064  0.50885332  0.59008220    -0.33200
H2733       H  0.84512294  0.99064441  0.60588228     0.28200
H2734       H  0.85019131  0.50409067  0.88996386     0.28200
H2735       H  0.83243205  0.94954032  0.97285488     0.18800
H2736       H  0.87222351  0.54403487  0.52271590     0.18800
C2737       C  0.84617805  0.86910976  0.53026596    -0.07100
C2738       C  0.84270153  0.87014420  0.48884916    -0.18200
C2739       C  0.85416625  0.85978191  0.46174019     0.10100
C2740       C  0.86996304  0.84881967  0.97616467    -0.07000
C2741       C  0.87256230  0.84690841  0.01756471    -0.18200
C2742       C  0.86104994  0.85729851  0.04451628     0.10200
S2743       S  0.84828700  0.86203366  0.40921448    -0.33200
S2744       S  0.86544066  0.85356189  0.09713212    -0.33200
H2745       H  0.83946740  0.84850876  0.60898730     0.28200
H2746       H  0.84824227  0.83830036  0.89807826     0.28200
H2747       H  0.83153212  0.87974955  0.47740064     0.18800
H2748       H  0.88417122  0.83777059  0.02899780     0.18800
C2749       C  0.87195257  0.85306132  0.77968948    -0.07100
C2750       C  0.84538950  0.83569427  0.76504595    -0.18200
C2751       C  0.83349149  0.84500335  0.73683860     0.10100
C2752       C  0.84827692  0.87248597  0.72331081    -0.07000
C2753       C  0.87487805  0.88968019  0.73784468    -0.18200
C2754       C  0.88693002  0.88026536  0.76526985     0.10200
S2755       S  0.80002834  0.82051173  0.71810887    -0.33200
S2756       S  0.92207092  0.90359594  0.77876877    -0.33200
H2757       H  0.92993900  0.88356044  0.77667557     0.28200
H2758       H  0.80545946  0.83031488  0.67853950     0.28200
H2759       H  0.83394723  0.81463029  0.77531298     0.18800
H2760       H  0.88654069  0.91074551  0.72763396     0.18800
C2761       C  0.68180960  0.91743215  0.63250743    -0.07100
C2762       C  0.69790781  0.92565500  0.59756096    -0.18200
C2763       C  0.72390023  0.92801453  0.59656251     0.10100
C2764       C  0.73361092  0.92056282  0.63059362    -0.07000
C2765       C  0.71879218  0.91503247  0.66642138    -0.18200
C2766       C  0.69346508  0.91386383  0.66801584     0.10200
S2767       S  0.74366726  0.94081245  0.55124269    -0.33200
S2768       S  0.67635255  0.90519388  0.71576518    -0.33200
H2769       H  0.67486494  0.92940534  0.71743736     0.28200
H2770       H  0.76929860  0.95344942  0.57054749     0.28200
H2771       H  0.69003888  0.92989982  0.57057879     0.18800
H2772       H  0.72615876  0.90993720  0.69317608     0.18800
C2773       C  0.72681478  0.81664809  0.62962386    -0.07100
C2774       C  0.72172618  0.79792999  0.59843542    -0.18200
C2775       C  0.69795127  0.77197879  0.59782747     0.10100
C2776       C  0.67833179  0.76443495  0.62882643    -0.07000
C2777       C  0.68425951  0.78246553  0.66106075    -0.18200
C2778       C  0.70764910  0.80839111  0.66153602     0.10200
S2779       S  0.69419448  0.74944676  0.55704204    -0.33200
S2780       S  0.70982861  0.83051177  0.70209520    -0.33200
H2781       H  0.71325062  0.85192071  0.67660653     0.28200
H2782       H  0.68096316  0.72528895  0.58003031     0.28200
H2783       H  0.73630731  0.80356170  0.57415301     0.18800
H2784       H  0.66946545  0.77725003  0.68496474     0.18800
loop_ 
_geom_bond_atom_site_label_1 
_geom_bond_atom_site_label_2 
_geom_bond_distance 
_geom_bond_site_symmetry_2 
_ccdc_geom_bond_type 
Fe1          O17   2.053       .  S
Fe1           O7   2.075       .  S
Fe1          O14   2.072       .  S
Fe1           O6   2.063       .  S
Fe1          O12   1.959       .  S
Fe2           O5   2.053       .  S
Fe2           O9   2.078       .  S
Fe2          O13   2.060       .  S
Fe2          O18   2.076       .  S
Fe2          O12   1.960       .  S
Fe3          O21   2.083       .  S
Fe3           O8   2.051       .  S
Fe3          O15   2.050       .  S
Fe3           O4   2.076       .  S
Fe3          O12   1.963       .  S
O4           C11   1.270       .  A
O5           C19   1.266       .  A
O6           C11   1.268       .  A
O7           C10   1.271       .  A
O8           C20   1.267       .  A
O9           C22   1.271       .  A
C10          O15   1.268       .  A
C10         C301   1.468       .  S
C11         C289   1.481       .  S
O13          C16   1.267       .  A
O14          C16   1.272       .  A
C16         C277   1.494       .  S
O17          C22   1.268       .  A
O18          C20   1.272       .  A
C19          O21   1.272       .  A
C19         C337   1.485       .  S
C20         C328   1.480       .  S
C22         C316   1.478       .  S
Fe23         O39   2.067       .  S
Fe23         O29   2.072       .  S
Fe23         O36   2.068       .  S
Fe23         O28   2.064       .  S
Fe23         O34   1.965       .  S
Fe24         O27   2.066       .  S
Fe24         O31   2.067       .  S
Fe24         O35   2.069       .  S
Fe24         O40   2.061       .  S
Fe24         O34   1.976       .  S
Fe25         O43   2.057       .  S
Fe25         O30   2.067       .  S
Fe25         O37   2.067       .  S
Fe25         O26   2.066       .  S
Fe25         O34   1.969       .  S
O26          C33   1.269       .  A
O27          C41   1.269       .  A
O28          C33   1.269       .  A
O29          C32   1.270       .  A
O30          C42   1.270       .  A
O31          C44   1.269       .  A
C32          O37   1.268       .  A
C32         C217   1.479       .  S
C33         C253   1.487       .  S
O35          C38   1.269       .  A
O36          C38   1.270       .  A
C38         C244   1.485       .  S
O39          C44   1.270       .  A
O40          C42   1.267       .  A
C41          O43   1.269       .  A
C41         C325   1.491       .  S
C42         C265   1.491       .  S
C44         C232   1.479       .  S
Fe45         O61   2.056       .  S
Fe45         O51   2.063       .  S
Fe45         O58   2.068       .  S
Fe45         O50   2.058       .  S
Fe45         O56   1.974       .  S
Fe46         O49   2.065       .  S
Fe46         O53   2.057       .  S
Fe46         O57   2.060       .  S
Fe46         O62   2.051       .  S
Fe46         O56   1.975       .  S
Fe47         O65   2.060       .  S
Fe47         O52   2.073       .  S
Fe47         O59   2.074       .  S
Fe47         O48   2.058       .  S
Fe47         O56   1.972       .  S
O48          C55   1.266       .  A
O49          C63   1.268       .  A
O50          C55   1.265       .  A
O51          C54   1.271       .  A
O52          C64   1.272       .  A
O53          C66   1.267       .  A
C54          O59   1.271       .  A
C54         C196   1.485       .  S
C55         C181   1.474       .  S
O57          C60   1.268       .  A
O58          C60   1.271       .  A
C60         C172   1.479       .  S
O61          C66   1.266       .  A
O62          C64   1.265       .  A
C63          O65   1.269       .  A
C63         C340   1.488       .  S
C64         C268   1.494       .  S
C66         C208   1.475       .  S
Fe67         O83   2.067       .  S
Fe67         O73   2.056       .  S
Fe67         O80   2.058       .  S
Fe67         O72   2.072       .  S
Fe67         O78   1.969       .  S
Fe68         O71   2.074       .  S
Fe68         O75   2.061       .  S
Fe68         O79   2.077       .  S
Fe68         O84   2.053       .  S
Fe68         O78   1.969       .  S
Fe69         O87   2.060       .  S
Fe69         O74   2.072       .  S
Fe69         O81   2.071       .  S
Fe69         O70   2.059       .  S
Fe69         O78   1.973       .  S
O70          C77   1.267       .  A
O71          C85   1.272       .  A
O72          C77   1.270       .  A
O73          C76   1.268       .  A
O74          C86   1.270       .  A
O75          C88   1.267       .  A
C76          O81   1.270       .  A
C76         C304   1.471       .  S
C77         C256   1.484       .  S
O79          C82   1.272       .  A
O80          C82   1.270       .  A
C82         C241   1.482       .  S
O83          C88   1.268       .  A
O84          C86   1.265       .  A
C85          O87   1.268       .  A
C85         C145   1.495       .  S
C86         C157   1.488       .  S
C88         C313   1.479       .  S
Fe89        O105   2.063       .  S
Fe89         O95   2.065       .  S
Fe89        O102   2.068       .  S
Fe89         O94   2.062       .  S
Fe89        O100   1.976       .  S
Fe90         O93   2.049       .  S
Fe90         O97   2.062       .  S
Fe90        O101   2.047       .  S
Fe90        O106   2.063       .  S
Fe90        O100   1.984       .  S
Fe91        O109   2.069       .  S
Fe91         O96   2.058       .  S
Fe91        O103   2.063       .  S
Fe91         O92   2.061       .  S
Fe91        O100   1.974       .  S
O92          C99   1.269       .  A
O93         C107   1.265       .  A
O94          C99   1.269       .  A
O95          C98   1.268       .  A
O96         C108   1.268       .  A
O97         C110   1.269       .  A
C98         O103   1.267       .  A
C98         C280   1.481       .  S
C99         C184   1.473       .  S
O101        C104   1.263       .  A
O102        C104   1.268       .  A
C104        C169   1.466       .  S
O105        C110   1.268       .  A
O106        C108   1.266       .  A
C107        O109   1.271       .  A
C107        C133   1.488       .  S
C108        C160   1.490       .  S
C110        C292   1.472       .  S
Fe111       O127   2.051       .  S
Fe111       O117   2.081       .  S
Fe111       O124   2.071       .  S
Fe111       O116   2.052       .  S
Fe111       O122   1.962       .  S
Fe112       O115   2.053       .  S
Fe112       O119   2.069       .  S
Fe112       O123   2.055       .  S
Fe112       O128   2.075       .  S
Fe112       O122   1.964       .  S
Fe113       O131   2.072       .  S
Fe113       O118   2.046       .  S
Fe113       O125   2.056       .  S
Fe113       O114   2.071       .  S
Fe113       O122   1.963       .  S
O114        C121   1.271       .  A
O115        C129   1.266       .  A
O116        C121   1.267       .  A
O117        C120   1.272       .  A
O118        C130   1.265       .  A
O119        C132   1.271       .  A
C120        O125   1.267       .  A
C120        C193   1.481       .  S
C121        C229   1.477       .  S
O123        C126   1.265       .  A
O124        C126   1.268       .  A
C126        C220   1.475       .  S
O127        C132   1.270       .  A
O128        C130   1.274       .  A
C129        O131   1.268       .  A
C129        C148   1.489       .  S
C130        C136   1.489       .  S
C132        C205   1.468       .  S
C133        C134   1.405       .  A
C133        C138   1.419       .  A
C134        C135   1.397       .  A
C134        H143   1.083       .  S
C135        C136   1.420       .  A
C135        S139   1.803       .  S
C136        C137   1.405       .  A
C137        C138   1.396       .  A
C137        H144   1.083       .  S
C138        S140   1.804       .  S
S139        H142   1.408       .  S
S140        H141   1.408       .  S
C145        C146   1.409       .  A
C145        C150   1.420       .  A
C146        C147   1.401       .  A
C146        H155   1.084       .  S
C147        C148   1.415       .  A
C147        S151   1.803       .  S
C148        C149   1.406       .  A
C149        C150   1.398       .  A
C149        H156   1.084       .  S
C150        S152   1.802       .  S
S151        H154   1.408       .  S
S152        H153   1.408       .  S
C157        C158   1.408       .  A
C157        C162   1.418       .  A
C158        C159   1.404       .  A
C158        H167   1.083       .  S
C159        C160   1.418       .  A
C159        S163   1.803       .  S
C160        C161   1.404       .  A
C161        C162   1.393       .  A
C161        H168   1.083       .  S
C162        S164   1.802       .  S
S163        H166   1.408       .  S
S164        H165   1.404       .  S
C169       C1562   1.399       .  A
C169        C522   1.410       .  A
C170        C171   1.399   1_655  A
C170       C1561   1.400       .  A
C170        H179   1.084   1_655  S
C171        C520   1.419       .  A
C171        S175   1.804       .  S
C172        C519   1.418   1_554  A
C172       C1565   1.405   1_455  A
C173        C174   1.395       .  A
C173       C1564   1.405       .  A
C173        H180   1.083       .  S
C174        C517   1.409   1_554  A
C174        S176   1.802       .  S
S175        H526   1.406       .  S
S176        H525   1.405       .  S
H177        S524   1.405       .  S
H178        S523   1.403       .  S
C181        C182   1.403       .  A
C181       C1578   1.412       .  A
C182        C183   1.400   1_455  A
C182        H191   1.084       .  S
C183       C1576   1.415       .  A
C183        S187   1.803       .  S
C184        C185   1.402       .  A
C184       C1575   1.412       .  A
C185        C186   1.395       .  A
C185        H192   1.084       .  S
C186       C1573   1.415       .  A
C186        S188   1.800       .  S
S187       H1582   1.407       .  S
S188       H1581   1.408       .  S
H189       S1580   1.407       .  S
H190       S1579   1.407       .  S
C193        C194   1.404       .  A
C193        C198   1.415       .  A
C194        C195   1.402       .  A
C194        H203   1.085       .  S
C195        C196   1.417       .  A
C195        S199   1.803       .  S
C196        C197   1.405       .  A
C197        C198   1.398       .  A
C197        H204   1.085       .  S
C198        S200   1.804       .  S
S199        H202   1.407       .  S
S200        H201   1.407       .  S
C205        C206   1.400       .  A
C205        C210   1.412       .  A
C206        C555   1.393       .  A
C206        H215   1.084       .  S
C207        C208   1.417       .  A
C207        C554   1.394   1_554  A
C207        S211   1.806       .  S
C208        C209   1.405       .  A
C209        C558   1.399   1_554  A
C209        H216   1.084       .  S
C210        C557   1.399       .  A
C210        S212   1.804       .  S
S211        H214   1.403       .  S
S212        H213   1.407       .  S
C217        C914   1.403       .  A
C217        C570   1.412       .  A
C218        C219   1.399       .  A
C218        C913   1.402   1_545  A
C218        H227   1.080       .  S
C219        C568   1.414   1_554  A
C219        S223   1.803       .  S
C220        C567   1.414       .  A
C220        C917   1.401   1_545  A
C221        C222   1.394       .  A
C221        C916   1.403       .  A
C221        H228   1.084       .  S
C222        C565   1.413       .  A
C222        S224   1.801       .  S
S223        H574   1.407       .  S
S224        H225   1.406       .  S
H226        S571   1.406       .  S
C229        C230   1.405       .  A
C229        C930   1.415   1_545  A
C230        C231   1.396       .  A
C230        H239   1.084       .  S
C231        C928   1.410   1_545  A
C231        S235   1.801       .  S
C232        C233   1.405       .  A
C232        C927   1.412       .  A
C233        C234   1.400       .  A
C233        H240   1.084       .  S
C234        C925   1.414       .  A
C234        S236   1.805       .  S
S235        H934   1.407   1_545  S
S236        H933   1.407       .  S
H237        S932   1.407   1_545  S
H238        S931   1.407       .  S
C241        C242   1.404       .  A
C241        C246   1.415       .  A
C242       C1635   1.398       .  A
C242        H251   1.084       .  S
C243        C244   1.416       .  A
C243       C1634   1.396   1_455  A
C243        S247   1.804       .  S
C244        C245   1.407       .  A
C245       C1638   1.405   1_455  A
C245        H252   1.084       .  S
C246       C1637   1.401       .  A
C246        S248   1.801       .  S
S247        H250   1.408       .  S
S248        H249   1.407       .  S
C253       C1646   1.410       .  A
C253        C606   1.417   1_455  A
C254        C255   1.401   1_554  A
C254       C1645   1.406       .  A
C254        H263   1.084       .  S
C255        C604   1.413       .  A
C255        S259   1.804       .  S
C256        C603   1.414       .  A
C256       C1649   1.403       .  A
C257        C258   1.396   1_655  A
C257       C1648   1.400       .  A
C257        H264   1.085       .  S
C258        C601   1.417       .  A
C258        S260   1.799       .  S
S259        H610   1.407       .  S
S260        H609   1.407   1_455  S
H261        S608   1.408   1_655  S
H262        S607   1.407       .  S
C265        C266   1.405       .  A
C265        C270   1.418       .  A
C266        C267   1.398       .  A
C266        H275   1.084       .  S
C267        C268   1.421       .  A
C267        S271   1.803       .  S
C268        C269   1.407       .  A
C269        C270   1.403       .  A
C269        H276   1.083       .  S
C270        S272   1.811       .  S
S271        H274   1.408       .  S
S272        H273   1.407       .  S
C277        C282   1.424       .  A
C277        C974   1.409       .  A
C278        C279   1.400       .  A
C278        C973   1.402   1_545  A
C278        H287   1.084       .  S
C279        C280   1.417       .  A
C279        S283   1.804       .  S
C280        C977   1.402   1_545  A
C281        C282   1.402       .  A
C281        C976   1.399       .  A
C281        H288   1.085       .  S
C282        S284   1.801       .  S
S283        H286   1.408       .  S
S284        H285   1.408       .  S
C289        C638   1.405   1_554  A
C289        C990   1.413       .  A
C290        C291   1.400       .  A
C290        C637   1.405       .  A
C290        H299   1.084       .  S
C291        C988   1.416       .  A
C291        S295   1.804       .  S
C292        C987   1.413   1_545  A
C292        C641   1.401       .  A
C293        C294   1.397       .  A
C293        C640   1.404   1_554  A
C293        H300   1.084       .  S
C294        C985   1.410   1_545  A
C294        S296   1.802       .  S
S295        H994   1.407       .  S
S296        H993   1.407   1_545  S
H297        S992   1.407       .  S
H298        S991   1.407   1_545  S
C301        C302   1.402   1_554  A
C301        C654   1.411       .  A
C302        C303   1.397       .  A
C302        H311   1.084       .  S
C303        C652   1.414       .  A
C303        S307   1.805       .  S
C304        C305   1.403       .  A
C304        C651   1.412       .  A
C305        C306   1.399       .  A
C305        H312   1.084       .  S
C306        C649   1.414       .  A
C306        S308   1.804       .  S
S307        H658   1.407       .  S
S308        H657   1.406       .  S
H309        S656   1.406       .  S
H310        S655   1.406       .  S
C313        C314   1.406       .  A
C313        C318   1.414       .  A
C314        C315   1.404       .  A
C314        H323   1.084       .  S
C315        C316   1.415       .  A
C315        S319   1.803       .  S
C316        C317   1.402       .  A
C317        C318   1.395       .  A
C317        H324   1.084       .  S
C318        S320   1.804       .  S
S319        H322   1.407       .  S
S320        H321   1.407       .  S
C325        C326   1.408       .  A
C325        C330   1.418       .  A
C326        C327   1.394       .  A
C326        H335   1.084       .  S
C327        C328   1.414       .  A
C327        S331   1.802       .  S
C328        C329   1.405       .  A
C329        C330   1.401       .  A
C329        H336   1.084       .  S
C330        S332   1.802       .  S
S331        H334   1.407       .  S
S332        H333   1.408       .  S
C337        C338   1.406       .  A
C337        C342   1.417       .  A
C338        C339   1.403       .  A
C338        H347   1.084       .  S
C339        C340   1.417       .  A
C339        S343   1.803       .  S
C340        C341   1.405       .  A
C341        C342   1.396       .  A
C341        H348   1.084       .  S
C342        S344   1.804       .  S
S343        H346   1.408       .  S
S344        H345   1.407       .  S
Fe349       O365   2.056       .  S
Fe349       O355   2.072       .  S
Fe349       O362   2.068       .  S
Fe349       O354   2.066       .  S
Fe349       O360   1.959       .  S
Fe350       O353   2.050       .  S
Fe350       O357   2.070       .  S
Fe350       O361   2.058       .  S
Fe350       O366   2.071       .  S
Fe350       O360   1.960       .  S
Fe351       O369   2.082       .  S
Fe351       O356   2.057       .  S
Fe351       O363   2.057       .  S
Fe351       O352   2.076       .  S
Fe351       O360   1.961       .  S
O352        C359   1.271       .  A
O353        C367   1.265       .  A
O354        C359   1.269       .  A
O355        C358   1.271       .  A
O356        C368   1.267       .  A
O357        C370   1.269       .  A
C358        O363   1.270       .  A
C358        C649   1.474       .  S
C359        C637   1.484       .  S
O361        C364   1.267       .  A
O362        C364   1.271       .  A
C364        C625   1.490       .  S
O365        C370   1.269       .  A
O366        C368   1.271       .  A
C367        O369   1.272       .  A
C367        C685   1.483       .  S
C368        C676   1.485       .  S
C370        C664   1.475       .  S
Fe371       O387   2.067       .  S
Fe371       O377   2.067       .  S
Fe371       O384   2.069       .  S
Fe371       O376   2.066       .  S
Fe371       O382   1.968       .  S
Fe372       O375   2.067       .  S
Fe372       O379   2.065       .  S
Fe372       O383   2.069       .  S
Fe372       O388   2.058       .  S
Fe372       O382   1.975       .  S
Fe373       O391   2.060       .  S
Fe373       O378   2.065       .  S
Fe373       O385   2.066       .  S
Fe373       O374   2.068       .  S
Fe373       O382   1.971       .  S
O374        C381   1.270       .  A
O375        C389   1.269       .  A
O376        C381   1.269       .  A
O377        C380   1.269       .  A
O378        C390   1.270       .  A
O379        C392   1.269       .  A
C380        O385   1.268       .  A
C380        C565   1.478       .  S
C381        C601   1.487       .  S
O383        C386   1.269       .  A
O384        C386   1.269       .  A
C386        C592   1.484       .  S
O387        C392   1.270       .  A
O388        C390   1.266       .  A
C389        O391   1.270       .  A
C389        C673   1.494       .  S
C390        C613   1.491       .  S
C392        C580   1.478       .  S
Fe393       O409   2.053       .  S
Fe393       O399   2.068       .  S
Fe393       O406   2.069       .  S
Fe393       O398   2.058       .  S
Fe393       O404   1.973       .  S
Fe394       O397   2.061       .  S
Fe394       O401   2.056       .  S
Fe394       O405   2.060       .  S
Fe394       O410   2.051       .  S
Fe394       O404   1.978       .  S
Fe395       O413   2.061       .  S
Fe395       O400   2.070       .  S
Fe395       O407   2.070       .  S
Fe395       O396   2.059       .  S
Fe395       O404   1.972       .  S
O396        C403   1.267       .  A
O397        C411   1.267       .  A
O398        C403   1.266       .  A
O399        C402   1.271       .  A
O400        C412   1.271       .  A
O401        C414   1.266       .  A
C402        O407   1.270       .  A
C402        C544   1.486       .  S
C403        C529   1.476       .  S
O405        C408   1.268       .  A
O406        C408   1.272       .  A
C408        C520   1.482       .  S
O409        C414   1.266       .  A
O410        C412   1.264       .  A
C411        O413   1.269       .  A
C411        C688   1.487       .  S
C412        C616   1.494       .  S
C414        C556   1.472       .  S
Fe415       O431   2.059       .  S
Fe415       O421   2.053       .  S
Fe415       O428   2.059       .  S
Fe415       O420   2.066       .  S
Fe415       O426   1.969       .  S
Fe416       O419   2.076       .  S
Fe416       O423   2.063       .  S
Fe416       O427   2.076       .  S
Fe416       O432   2.055       .  S
Fe416       O426   1.966       .  S
Fe417       O435   2.057       .  S
Fe417       O422   2.075       .  S
Fe417       O429   2.073       .  S
Fe417       O418   2.058       .  S
Fe417       O426   1.972       .  S
O418        C425   1.268       .  A
O419        C433   1.273       .  A
O420        C425   1.269       .  A
O421        C424   1.267       .  A
O422        C434   1.270       .  A
O423        C436   1.267       .  A
C424        O429   1.270       .  A
C424        C652   1.474       .  S
C425        C604   1.476       .  S
O427        C430   1.272       .  A
O428        C430   1.270       .  A
C430        C589   1.478       .  S
O431        C436   1.267       .  A
O432        C434   1.266       .  A
C433        O435   1.267       .  A
C433        C493   1.494       .  S
C434        C505   1.489       .  S
C436        C661   1.477       .  S
Fe437       O453   2.061       .  S
Fe437       O443   2.061       .  S
Fe437       O450   2.061       .  S
Fe437       O442   2.059       .  S
Fe437       O448   1.979       .  S
Fe438       O441   2.057       .  S
Fe438       O445   2.068       .  S
Fe438       O449   2.049       .  S
Fe438       O454   2.073       .  S
Fe438       O448   1.981       .  S
Fe439       O457   2.059       .  S
Fe439       O444   2.054       .  S
Fe439       O451   2.056       .  S
Fe439       O440   2.055       .  S
Fe439       O448   1.970       .  S
O440        C447   1.266       .  A
O441        C455   1.267       .  A
O442        C447   1.268       .  A
O443        C446   1.268       .  A
O444        C456   1.268       .  A
O445        C458   1.270       .  A
C446        O451   1.266       .  A
C446        C628   1.477       .  S
C447        C532   1.471       .  S
O449        C452   1.265       .  A
O450        C452   1.268       .  A
C452        C517   1.464       .  S
O453        C458   1.268       .  A
O454        C456   1.269       .  A
C455        O457   1.269       .  A
C455        C481   1.486       .  S
C456        C508   1.486       .  S
C458        C640   1.478       .  S
Fe459       O475   2.049       .  S
Fe459       O465   2.082       .  S
Fe459       O472   2.070       .  S
Fe459       O464   2.049       .  S
Fe459       O470   1.961       .  S
Fe460       O463   2.053       .  S
Fe460       O467   2.071       .  S
Fe460       O471   2.058       .  S
Fe460       O476   2.079       .  S
Fe460       O470   1.962       .  S
Fe461       O479   2.074       .  S
Fe461       O466   2.047       .  S
Fe461       O473   2.058       .  S
Fe461       O462   2.071       .  S
Fe461       O470   1.959       .  S
O462        C469   1.271       .  A
O463        C477   1.267       .  A
O464        C469   1.266       .  A
O465        C468   1.272       .  A
O466        C478   1.266       .  A
O467        C480   1.271       .  A
C468        O473   1.268       .  A
C468        C541   1.481       .  S
C469        C577   1.476       .  S
O471        C474   1.267       .  A
O472        C474   1.269       .  A
C474        C568   1.476       .  S
O475        C480   1.269       .  A
O476        C478   1.273       .  A
C477        O479   1.269       .  A
C477        C496   1.488       .  S
C478        C484   1.480       .  S
C480        C553   1.467       .  S
C481        C482   1.406       .  A
C481        C486   1.418       .  A
C482        C483   1.393       .  A
C482        H491   1.083       .  S
C483        C484   1.415       .  A
C483        S487   1.802       .  S
C484        C485   1.404       .  A
C485        C486   1.401       .  A
C485        H492   1.083       .  S
C486        S488   1.803       .  S
S487        H490   1.408       .  S
S488        H489   1.408       .  S
C493        C494   1.409       .  A
C493        C498   1.420       .  A
C494        C495   1.401       .  A
C494        H503   1.084       .  S
C495        C496   1.415       .  A
C495        S499   1.803       .  S
C496        C497   1.405       .  A
C497        C498   1.397       .  A
C497        H504   1.084       .  S
C498        S500   1.802       .  S
S499        H502   1.408       .  S
S500        H501   1.408       .  S
C505        C506   1.409       .  A
C505        C510   1.418       .  A
C506        C507   1.405       .  A
C506        H515   1.083       .  S
C507        C508   1.415       .  A
C507        S511   1.803       .  S
C508        C509   1.403       .  A
C509        C510   1.394       .  A
C509        H516   1.083       .  S
C510        S512   1.802       .  S
S511        H514   1.408       .  S
S512        H513   1.407       .  S
C517       C1910   1.400       .  A
C518       C1909   1.399       .  A
C518        C519   1.398   1_655  A
C518        H527   1.084   1_655  S
C519        S523   1.805       .  S
C520       C1913   1.405   1_455  A
C521       C1912   1.406       .  A
C521        C522   1.396       .  A
C521        H528   1.083       .  S
C522        S524   1.802       .  S
C529        C530   1.403       .  A
C529       C1926   1.415       .  A
C530        C531   1.399   1_455  A
C530        H539   1.084       .  S
C531       C1924   1.415       .  A
C531        S535   1.804       .  S
C532       C1923   1.413       .  A
C532        C533   1.402       .  A
C533        C534   1.395       .  A
C533        H540   1.084       .  S
C534       C1921   1.413       .  A
C534        S536   1.801       .  S
S535       H1930   1.407       .  S
S536       H1929   1.407       .  S
H537       S1928   1.407       .  S
H538       S1927   1.407       .  S
C541        C542   1.404       .  A
C541        C546   1.415       .  A
C542        C543   1.402       .  A
C542        H551   1.085       .  S
C543        C544   1.418       .  A
C543        S547   1.803       .  S
C544        C545   1.405       .  A
C545        C546   1.399       .  A
C545        H552   1.085       .  S
C546        S548   1.804       .  S
S547        H550   1.407       .  S
S548        H549   1.406       .  S
C553        C554   1.400       .  A
C553        C558   1.411       .  A
C554        H563   1.085       .  S
C555        C556   1.415       .  A
C555        S559   1.805       .  S
C556        C557   1.405       .  A
C557        H564   1.084       .  S
C558        S560   1.804       .  S
S559        H562   1.405       .  S
S560        H561   1.407       .  S
C565       C1262   1.403       .  A
C566       C1261   1.402   1_545  A
C566        C567   1.400       .  A
C566        H575   1.079       .  S
C567        S571   1.804       .  S
C568       C1265   1.402   1_545  A
C569       C1264   1.406       .  A
C569        C570   1.397   1_556  A
C569        H576   1.083       .  S
C570        S572   1.803       .  S
S572        H573   1.406       .  S
C577        C578   1.404       .  A
C577       C1278   1.415   1_545  A
C578        C579   1.395       .  A
C578        H587   1.084       .  S
C579       C1276   1.411   1_545  A
C579        S583   1.800       .  S
C580       C1275   1.412       .  A
C580        C581   1.405       .  A
C581        C582   1.399       .  A
C581        H588   1.084       .  S
C582       C1273   1.414       .  A
C582        S584   1.805       .  S
S583       H1282   1.407   1_545  S
S584       H1281   1.408       .  S
H585       S1280   1.407   1_545  S
H586       S1279   1.407       .  S
C589        C590   1.404       .  A
C589        C594   1.414       .  A
C590       C1983   1.399       .  A
C590        H599   1.084       .  S
C591       C1982   1.398   1_455  A
C591        C592   1.415       .  A
C591        S595   1.804       .  S
C592        C593   1.405       .  A
C593       C1986   1.404   1_455  A
C593        H600   1.084       .  S
C594       C1985   1.401       .  A
C594        S596   1.803       .  S
S595        H598   1.408       .  S
S596        H597   1.407       .  S
C601       C1994   1.410       .  A
C602       C1993   1.408       .  A
C602        C603   1.401       .  A
C602        H611   1.084       .  S
C603        S607   1.804       .  S
C604       C1997   1.403       .  A
C605       C1996   1.401       .  A
C605        C606   1.397   1_556  A
C605        H612   1.085       .  S
C606        S608   1.800   1_655  S
C613        C614   1.405       .  A
C613        C618   1.419       .  A
C614        C615   1.397       .  A
C614        H623   1.084       .  S
C615        C616   1.420       .  A
C615        S619   1.803       .  S
C616        C617   1.407       .  A
C617        C618   1.403       .  A
C617        H624   1.083       .  S
C618        S620   1.811       .  S
S619        H622   1.408       .  S
S620        H621   1.406       .  S
C625       C1322   1.409       .  A
C625        C630   1.422       .  A
C626       C1321   1.400   1_545  A
C626        C627   1.397       .  A
C626        H635   1.078       .  S
C627        C628   1.415       .  A
C627        S631   1.800       .  S
C628       C1325   1.404   1_545  A
C629       C1324   1.399       .  A
C629        C630   1.401       .  A
C629        H636   1.085       .  S
C630        S632   1.802       .  S
S631        H634   1.407       .  S
S632        H633   1.408       .  S
C637       C1338   1.414       .  A
C638        C639   1.401       .  A
C638        H647   1.084       .  S
C639       C1336   1.417       .  A
C639        S643   1.804       .  S
C640       C1335   1.415   1_545  A
C641        C642   1.396       .  A
C641        H648   1.083       .  S
C642       C1333   1.411   1_545  A
C642        S644   1.799       .  S
S643       H1342   1.407       .  S
S644       H1341   1.407   1_545  S
H645       S1340   1.407       .  S
H646       S1339   1.407   1_545  S
C649        C650   1.404       .  A
C650        C651   1.398       .  A
C650        H659   1.084       .  S
C651        S655   1.805       .  S
C652        C653   1.405   1_556  A
C653        C654   1.399       .  A
C653        H660   1.084       .  S
C654        S656   1.804       .  S
C661        C662   1.404       .  A
C661        C666   1.416       .  A
C662        C663   1.402       .  A
C662        H671   1.084       .  S
C663        C664   1.415       .  A
C663        S667   1.803       .  S
C664        C665   1.400       .  A
C665        C666   1.394       .  A
C665        H672   1.084       .  S
C666        S668   1.803       .  S
S667        H670   1.407       .  S
S668        H669   1.406       .  S
C673        C674   1.409       .  A
C673        C678   1.419       .  A
C674        C675   1.396       .  A
C674        H683   1.083       .  S
C675        C676   1.415       .  A
C675        S679   1.802       .  S
C676        C677   1.406       .  A
C677        C678   1.401       .  A
C677        H684   1.084       .  S
C678        S680   1.802       .  S
S679        H682   1.408       .  S
S680        H681   1.408       .  S
C685        C686   1.405       .  A
C685        C690   1.417       .  A
C686        C687   1.402       .  A
C686        H695   1.084       .  S
C687        C688   1.418       .  A
C687        S691   1.803       .  S
C688        C689   1.404       .  A
C689        C690   1.395       .  A
C689        H696   1.083       .  S
C690        S692   1.804       .  S
S691        H694   1.407       .  S
S692        H693   1.408       .  S
Fe697       O713   2.074       .  S
Fe697       O703   2.062       .  S
Fe697       O710   2.066       .  S
Fe697       O702   2.068       .  S
Fe697       O708   1.969       .  S
Fe698       O701   2.054       .  S
Fe698       O705   2.053       .  S
Fe698       O709   2.064       .  S
Fe698       O714   2.065       .  S
Fe698       O708   1.964       .  S
Fe699       O717   2.066       .  S
Fe699       O704   2.071       .  S
Fe699       O711   2.061       .  S
Fe699       O700   2.060       .  S
Fe699       O708   1.976       .  S
O700        C707   1.269       .  A
O701        C715   1.264       .  A
O702        C707   1.270       .  A
O703        C706   1.268       .  A
O704        C716   1.271       .  A
O705        C718   1.268       .  A
C706        O711   1.268       .  A
C706        C997   1.475       .  S
C707        C985   1.471       .  S
O709        C712   1.266       .  A
O710        C712   1.267       .  A
C712        C973   1.480       .  S
O713        C718   1.273       .  A
O714        C716   1.272       .  A
C715        O717   1.268       .  A
C715       C1033   1.489       .  S
C716       C1024   1.488       .  S
C718       C1012   1.475       .  S
Fe719       O735   2.063       .  S
Fe719       O725   2.061       .  S
Fe719       O732   2.071       .  S
Fe719       O724   2.068       .  S
Fe719       O730   1.969       .  S
Fe720       O723   2.063       .  S
Fe720       O727   2.058       .  S
Fe720       O731   2.055       .  S
Fe720       O736   2.053       .  S
Fe720       O730   1.967       .  S
Fe721       O739   2.073       .  S
Fe721       O726   2.080       .  S
Fe721       O733   2.068       .  S
Fe721       O722   2.071       .  S
Fe721       O730   1.974       .  S
O722        C729   1.274       .  A
O723        C737   1.267       .  A
O724        C729   1.270       .  A
O725        C728   1.267       .  A
O726        C738   1.271       .  A
O727        C740   1.268       .  A
C728        O733   1.267       .  A
C728        C913   1.474       .  S
C729        C949   1.487       .  S
O731        C734   1.266       .  A
O732        C734   1.270       .  A
C734        C940   1.479       .  S
O735        C740   1.269       .  A
O736        C738   1.266       .  A
C737        O739   1.273       .  A
C737       C1021   1.496       .  S
C738        C961   1.486       .  S
C740        C928   1.470       .  S
Fe741       O757   2.055       .  S
Fe741       O747   2.066       .  S
Fe741       O754   2.058       .  S
Fe741       O746   2.062       .  S
Fe741       O752   1.976       .  S
Fe742       O745   2.074       .  S
Fe742       O749   2.065       .  S
Fe742       O753   2.069       .  S
Fe742       O758   2.072       .  S
Fe742       O752   1.984       .  S
Fe743       O761   2.047       .  S
Fe743       O748   2.062       .  S
Fe743       O755   2.066       .  S
Fe743       O744   2.057       .  S
Fe743       O752   1.974       .  S
O744        C751   1.266       .  A
O745        C759   1.269       .  A
O746        C751   1.267       .  A
O747        C750   1.270       .  A
O748        C760   1.270       .  A
O749        C762   1.268       .  A
C750        O755   1.268       .  A
C750        C892   1.482       .  S
C751        C877   1.480       .  S
O753        C756   1.270       .  A
O754        C756   1.270       .  A
C756        C868   1.484       .  S
O757        C762   1.267       .  A
O758        C760   1.269       .  A
C759        O761   1.267       .  A
C759       C1036   1.481       .  S
C760        C964   1.493       .  S
C762        C904   1.473       .  S
Fe763       O779   2.062       .  S
Fe763       O769   2.049       .  S
Fe763       O776   2.055       .  S
Fe763       O768   2.070       .  S
Fe763       O774   1.958       .  S
Fe764       O767   2.081       .  S
Fe764       O771   2.059       .  S
Fe764       O775   2.077       .  S
Fe764       O780   2.050       .  S
Fe764       O774   1.964       .  S
Fe765       O783   2.054       .  S
Fe765       O770   2.072       .  S
Fe765       O777   2.078       .  S
Fe765       O766   2.060       .  S
Fe765       O774   1.965       .  S
O766        C773   1.267       .  A
O767        C781   1.274       .  A
O768        C773   1.270       .  A
O769        C772   1.267       .  A
O770        C782   1.270       .  A
O771        C784   1.268       .  A
C772        O777   1.271       .  A
C772       C1000   1.474       .  S
C773        C952   1.477       .  S
O775        C778   1.272       .  A
O776        C778   1.270       .  A
C778        C937   1.477       .  S
O779        C784   1.267       .  A
O780        C782   1.264       .  A
C781        O783   1.267       .  A
C781        C841   1.489       .  S
C782        C853   1.484       .  S
C784       C1009   1.486       .  S
Fe785       O801   2.062       .  S
Fe785       O791   2.079       .  S
Fe785       O798   2.075       .  S
Fe785       O790   2.052       .  S
Fe785       O796   1.962       .  S
Fe786       O789   2.046       .  S
Fe786       O793   2.079       .  S
Fe786       O797   2.047       .  S
Fe786       O802   2.081       .  S
Fe786       O796   1.964       .  S
Fe787       O805   2.072       .  S
Fe787       O792   2.048       .  S
Fe787       O799   2.053       .  S
Fe787       O788   2.075       .  S
Fe787       O796   1.965       .  S
O788        C795   1.271       .  A
O789        C803   1.264       .  A
O790        C795   1.268       .  A
O791        C794   1.271       .  A
O792        C804   1.267       .  A
O793        C806   1.272       .  A
C794        O799   1.265       .  A
C794        C976   1.469       .  S
C795        C880   1.474       .  S
O797        C800   1.265       .  A
O798        C800   1.270       .  A
C800        C865   1.470       .  S
O801        C806   1.270       .  A
O802        C804   1.272       .  A
C803        O805   1.271       .  A
C803        C829   1.485       .  S
C804        C856   1.483       .  S
C806        C988   1.488       .  S
Fe807       O823   2.064       .  S
Fe807       O813   2.070       .  S
Fe807       O820   2.070       .  S
Fe807       O812   2.059       .  S
Fe807       O818   1.973       .  S
Fe808       O811   2.049       .  S
Fe808       O815   2.059       .  S
Fe808       O819   2.053       .  S
Fe808       O824   2.053       .  S
Fe808       O818   1.976       .  S
Fe809       O827   2.071       .  S
Fe809       O814   2.063       .  S
Fe809       O821   2.065       .  S
Fe809       O810   2.072       .  S
Fe809       O818   1.982       .  S
O810        C817   1.270       .  A
O811        C825   1.266       .  A
O812        C817   1.268       .  A
O813        C816   1.270       .  A
O814        C826   1.268       .  A
O815        C828   1.267       .  A
C816        O821   1.269       .  A
C816        C889   1.481       .  S
C817        C925   1.481       .  S
O819        C822   1.263       .  A
O820        C822   1.270       .  A
C822        C916   1.486       .  S
O823        C828   1.270       .  A
O824        C826   1.268       .  A
C825        O827   1.268       .  A
C825        C844   1.488       .  S
C826        C832   1.487       .  S
C828        C901   1.475       .  S
C829        C830   1.406       .  A
C829        C834   1.418       .  A
C830        C831   1.399       .  A
C830        H839   1.083       .  S
C831        C832   1.416       .  A
C831        S835   1.803       .  S
C832        C833   1.406       .  A
C833        C834   1.394       .  A
C833        H840   1.083       .  S
C834        S836   1.803       .  S
S835        H838   1.408       .  S
S836        H837   1.408       .  S
C841        C842   1.408       .  A
C841        C846   1.418       .  A
C842        C843   1.403       .  A
C842        H851   1.084       .  S
C843        C844   1.415       .  A
C843        S847   1.803       .  S
C844        C845   1.405       .  A
C845        C846   1.395       .  A
C845        H852   1.084       .  S
C846        S848   1.802       .  S
S847        H850   1.408       .  S
S848        H849   1.408       .  S
C853        C854   1.407       .  A
C853        C858   1.417       .  A
C854        C855   1.401       .  A
C854        H863   1.083       .  S
C855        C856   1.414       .  A
C855        S859   1.802       .  S
C856        C857   1.404       .  A
C857        C858   1.395       .  A
C857        H864   1.083       .  S
C858        S860   1.802       .  S
S859        H862   1.408       .  S
S860        H861   1.405       .  S
C865       C2258   1.400       .  A
C865       C1218   1.412       .  A
C866       C2257   1.400   1_455  A
C866        C867   1.398       .  A
C866        H875   1.083       .  S
C867       C1216   1.416       .  A
C867        S871   1.803       .  S
C868       C1215   1.420   1_554  A
C868       C2261   1.407   1_455  A
C869       C2260   1.404       .  A
C869        C870   1.397       .  A
C869        H876   1.083       .  S
C870       C1213   1.410   1_554  A
C870        S872   1.801       .  S
S871       H1222   1.406       .  S
S872       H1221   1.405       .  S
H873       S1220   1.406       .  S
H874       S1219   1.406       .  S
C877        C878   1.407       .  A
C877       C2274   1.414       .  A
C878        C879   1.402   1_455  A
C878        H887   1.084       .  S
C879       C2272   1.414       .  A
C879        S883   1.804       .  S
C880       C2271   1.414       .  A
C880        C881   1.403       .  A
C881        C882   1.395       .  A
C881        H888   1.084       .  S
C882       C2269   1.411       .  A
C882        S884   1.800       .  S
S883       H2278   1.407       .  S
S884       H2277   1.407       .  S
H885       S2276   1.408       .  S
H886       S2275   1.407       .  S
C889        C890   1.405       .  A
C889        C894   1.415       .  A
C890        C891   1.403       .  A
C890        H899   1.085       .  S
C891        C892   1.416       .  A
C891        S895   1.804       .  S
C892        C893   1.403       .  A
C893        C894   1.397       .  A
C893        H900   1.085       .  S
C894        S896   1.804       .  S
S895        H898   1.407       .  S
S896        H897   1.407       .  S
C901        C902   1.401       .  A
C901        C906   1.415       .  A
C902       C1251   1.395       .  A
C902        H911   1.084       .  S
C903       C1250   1.396   1_554  A
C903        C904   1.414       .  A
C903        S907   1.805       .  S
C904        C905   1.402       .  A
C905       C1254   1.400   1_554  A
C905        H912   1.084       .  S
C906       C1253   1.401       .  A
C906        S908   1.804       .  S
S907        H910   1.405       .  S
S908        H909   1.407       .  S
C913       C1266   1.414   1_554  A
C914        C915   1.405   1_554  A
C914        H923   1.084       .  S
C915       C1264   1.421       .  A
C915        S919   1.800       .  S
C916       C1263   1.419       .  A
C917        C918   1.398       .  A
C917        H924   1.081       .  S
C918       C1261   1.415       .  A
C918        S920   1.804       .  S
S919       H1270   1.408   1_556  S
S920        H921   1.402       .  S
H922       S1267   1.408       .  S
C925        C926   1.406       .  A
C926        C927   1.401       .  A
C926        H935   1.083       .  S
C927        S931   1.804       .  S
C928        C929   1.401       .  A
C929        C930   1.398       .  A
C929        H936   1.084       .  S
C930        S932   1.802       .  S
C937        C938   1.403       .  A
C937        C942   1.413       .  A
C938       C2331   1.398       .  A
C938        H947   1.084       .  S
C939       C2330   1.399   1_455  A
C939        C940   1.413       .  A
C939        S943   1.803       .  S
C940        C941   1.405       .  A
C941       C2334   1.399   1_455  A
C941        H948   1.084       .  S
C942       C2333   1.400       .  A
C942        S944   1.802       .  S
S943        H946   1.407       .  S
S944        H945   1.407       .  S
C949       C2342   1.406       .  A
C949       C1302   1.420       .  A
C950       C2341   1.409       .  A
C950        C951   1.403   1_554  A
C950        H959   1.084       .  S
C951       C1300   1.412       .  A
C951        S955   1.804       .  S
C952       C1299   1.414       .  A
C952       C2345   1.401       .  A
C953       C2344   1.404       .  A
C953        C954   1.402   1_655  A
C953        H960   1.083       .  S
C954       C1297   1.416       .  A
C954        S956   1.810       .  S
S955       H1306   1.407       .  S
S956       H1305   1.407       .  S
H957       S1304   1.407       .  S
H958       S1303   1.407       .  S
C961        C962   1.406       .  A
C961        C966   1.417       .  A
C962        C963   1.404       .  A
C962        H971   1.084       .  S
C963        C964   1.418       .  A
C963        S967   1.803       .  S
C964        C965   1.406       .  A
C965        C966   1.400       .  A
C965        H972   1.082       .  S
C966        S968   1.812       .  S
S967        H970   1.408       .  S
S968        H969   1.406       .  S
C973        C978   1.416       .  A
C974        C975   1.395       .  A
C974        H983   1.084       .  S
C975        C976   1.408       .  A
C975        S979   1.804       .  S
C977        C978   1.398       .  A
C977        H984   1.084       .  S
C978        S980   1.804       .  S
S979        H982   1.405       .  S
S980        H981   1.407       .  S
C985       C1334   1.402   1_554  A
C986       C1333   1.403       .  A
C986        C987   1.400       .  A
C986        H995   1.084       .  S
C987        S991   1.801       .  S
C988       C1337   1.408       .  A
C989       C1336   1.407   1_554  A
C989        C990   1.400       .  A
C989        H996   1.084       .  S
C990        S992   1.804       .  S
C997        C998   1.404   1_554  A
C997       C1350   1.412       .  A
C998        C999   1.397       .  A
C998       H1007   1.085       .  S
C999       C1348   1.415       .  A
C999       S1003   1.804       .  S
C1000      C1347   1.413       .  A
C1000      C1001   1.404       .  A
C1001      C1002   1.399       .  A
C1001      H1008   1.085       .  S
C1002      C1345   1.415       .  A
C1002      S1004   1.805       .  S
S1003      H1354   1.407       .  S
S1004      H1353   1.407       .  S
H1005      S1352   1.407       .  S
H1006      S1351   1.407       .  S
C1009      C1010   1.408       .  A
C1009      C1014   1.420       .  A
C1010      C1011   1.401       .  A
C1010      H1019   1.083       .  S
C1011      C1012   1.413       .  A
C1011      S1015   1.804       .  S
C1012      C1013   1.400       .  A
C1013      C1014   1.395       .  A
C1013      H1020   1.084       .  S
C1014      S1016   1.804       .  S
S1015      H1018   1.407       .  S
S1016      H1017   1.408       .  S
C1021      C1022   1.407       .  A
C1021      C1026   1.422       .  A
C1022      C1023   1.400       .  A
C1022      H1031   1.083       .  S
C1023      C1024   1.416       .  A
C1023      S1027   1.803       .  S
C1024      C1025   1.404       .  A
C1025      C1026   1.399       .  A
C1025      H1032   1.084       .  S
C1026      S1028   1.803       .  S
S1027      H1030   1.408       .  S
S1028      H1029   1.408       .  S
C1033      C1034   1.410       .  A
C1033      C1038   1.420       .  A
C1034      C1035   1.405       .  A
C1034      H1043   1.083       .  S
C1035      C1036   1.413       .  A
C1035      S1039   1.803       .  S
C1036      C1037   1.401       .  A
C1037      C1038   1.390       .  A
C1037      H1044   1.084       .  S
C1038      S1040   1.805       .  S
S1039      H1042   1.407       .  S
S1040      H1041   1.409       .  S
Fe1045     O1061   2.071       .  S
Fe1045     O1051   2.056       .  S
Fe1045     O1058   2.058       .  S
Fe1045     O1050   2.064       .  S
Fe1045     O1056   1.970       .  S
Fe1046     O1049   2.053       .  S
Fe1046     O1053   2.052       .  S
Fe1046     O1057   2.061       .  S
Fe1046     O1062   2.060       .  S
Fe1046     O1056   1.966       .  S
Fe1047     O1065   2.065       .  S
Fe1047     O1052   2.073       .  S
Fe1047     O1059   2.063       .  S
Fe1047     O1048   2.063       .  S
Fe1047     O1056   1.974       .  S
O1048      C1055   1.268       .  A
O1049      C1063   1.265       .  A
O1050      C1055   1.268       .  A
O1051      C1054   1.267       .  A
O1052      C1064   1.272       .  A
O1053      C1066   1.268       .  A
C1054      O1059   1.270       .  A
C1054      C1345   1.476       .  S
C1055      C1333   1.472       .  S
O1057      C1060   1.265       .  A
O1058      C1060   1.265       .  A
C1060      C1321   1.471       .  S
O1061      C1066   1.272       .  A
O1062      C1064   1.272       .  A
C1063      O1065   1.267       .  A
C1063      C1381   1.483       .  S
C1064      C1372   1.485       .  S
C1066      C1360   1.478       .  S
Fe1067     O1083   2.060       .  S
Fe1067     O1073   2.066       .  S
Fe1067     O1080   2.077       .  S
Fe1067     O1072   2.064       .  S
Fe1067     O1078   1.974       .  S
Fe1068     O1071   2.061       .  S
Fe1068     O1075   2.058       .  S
Fe1068     O1079   2.059       .  S
Fe1068     O1084   2.052       .  S
Fe1068     O1078   1.972       .  S
Fe1069     O1087   2.071       .  S
Fe1069     O1074   2.075       .  S
Fe1069     O1081   2.064       .  S
Fe1069     O1070   2.073       .  S
Fe1069     O1078   1.979       .  S
O1070      C1077   1.273       .  A
O1071      C1085   1.267       .  A
O1072      C1077   1.270       .  A
O1073      C1076   1.268       .  A
O1074      C1086   1.270       .  A
O1075      C1088   1.268       .  A
C1076      O1081   1.267       .  A
C1076      C1261   1.476       .  S
C1077      C1297   1.482       .  S
O1079      C1082   1.267       .  A
O1080      C1082   1.271       .  A
C1082      C1288   1.484       .  S
O1083      C1088   1.268       .  A
O1084      C1086   1.266       .  A
C1085      O1087   1.272       .  A
C1085      C1369   1.496       .  S
C1086      C1309   1.485       .  S
C1088      C1276   1.471       .  S
Fe1089     O1105   2.056       .  S
Fe1089     O1095   2.066       .  S
Fe1089     O1102   2.059       .  S
Fe1089     O1094   2.063       .  S
Fe1089     O1100   1.977       .  S
Fe1090     O1093   2.068       .  S
Fe1090     O1097   2.064       .  S
Fe1090     O1101   2.064       .  S
Fe1090     O1106   2.070       .  S
Fe1090     O1100   1.986       .  S
Fe1091     O1109   2.052       .  S
Fe1091     O1096   2.058       .  S
Fe1091     O1103   2.063       .  S
Fe1091     O1092   2.057       .  S
Fe1091     O1100   1.973       .  S
O1092      C1099   1.265       .  A
O1093      C1107   1.269       .  A
O1094      C1099   1.266       .  A
O1095      C1098   1.271       .  A
O1096      C1108   1.269       .  A
O1097      C1110   1.267       .  A
C1098      O1103   1.269       .  A
C1098      C1240   1.483       .  S
C1099      C1225   1.479       .  S
O1101      C1104   1.270       .  A
O1102      C1104   1.270       .  A
C1104      C1216   1.474       .  S
O1105      C1110   1.266       .  A
O1106      C1108   1.269       .  A
C1107      O1109   1.268       .  A
C1107      C1384   1.479       .  S
C1108      C1312   1.488       .  S
C1110      C1252   1.476       .  S
Fe1111     O1127   2.065       .  S
Fe1111     O1117   2.054       .  S
Fe1111     O1124   2.058       .  S
Fe1111     O1116   2.073       .  S
Fe1111     O1122   1.959       .  S
Fe1112     O1115   2.085       .  S
Fe1112     O1119   2.054       .  S
Fe1112     O1123   2.082       .  S
Fe1112     O1128   2.046       .  S
Fe1112     O1122   1.962       .  S
Fe1113     O1131   2.057       .  S
Fe1113     O1118   2.073       .  S
Fe1113     O1125   2.077       .  S
Fe1113     O1114   2.063       .  S
Fe1113     O1122   1.963       .  S
O1114      C1121   1.268       .  A
O1115      C1129   1.275       .  A
O1116      C1121   1.270       .  A
O1117      C1120   1.269       .  A
O1118      C1130   1.270       .  A
O1119      C1132   1.266       .  A
C1120      O1125   1.272       .  A
C1120      C1348   1.480       .  S
C1121      C1300   1.477       .  S
O1123      C1126   1.273       .  A
O1124      C1126   1.271       .  A
C1126      C1285   1.480       .  S
O1127      C1132   1.268       .  A
O1128      C1130   1.264       .  A
C1129      O1131   1.267       .  A
C1129      C1189   1.493       .  S
C1130      C1201   1.482       .  S
C1132      C1357   1.481       .  S
Fe1133     O1149   2.061       .  S
Fe1133     O1139   2.081       .  S
Fe1133     O1146   2.077       .  S
Fe1133     O1138   2.050       .  S
Fe1133     O1144   1.960       .  S
Fe1134     O1137   2.046       .  S
Fe1134     O1141   2.074       .  S
Fe1134     O1145   2.049       .  S
Fe1134     O1150   2.079       .  S
Fe1134     O1144   1.960       .  S
Fe1135     O1153   2.071       .  S
Fe1135     O1140   2.048       .  S
Fe1135     O1147   2.051       .  S
Fe1135     O1136   2.074       .  S
Fe1135     O1144   1.963       .  S
O1136      C1143   1.269       .  A
O1137      C1151   1.263       .  A
O1138      C1143   1.267       .  A
O1139      C1142   1.272       .  A
O1140      C1152   1.268       .  A
O1141      C1154   1.271       .  A
C1142      O1147   1.266       .  A
C1142      C1324   1.466       .  S
C1143      C1228   1.475       .  S
O1145      C1148   1.265       .  A
O1146      C1148   1.271       .  A
C1148      C1213   1.469       .  S
O1149      C1154   1.269       .  A
O1150      C1152   1.272       .  A
C1151      O1153   1.270       .  A
C1151      C1177   1.484       .  S
C1152      C1204   1.479       .  S
C1154      C1336   1.486       .  S
Fe1155     O1171   2.065       .  S
Fe1155     O1161   2.073       .  S
Fe1155     O1168   2.071       .  S
Fe1155     O1160   2.060       .  S
Fe1155     O1166   1.972       .  S
Fe1156     O1159   2.064       .  S
Fe1156     O1163   2.062       .  S
Fe1156     O1167   2.061       .  S
Fe1156     O1172   2.055       .  S
Fe1156     O1166   1.974       .  S
Fe1157     O1175   2.067       .  S
Fe1157     O1162   2.056       .  S
Fe1157     O1169   2.058       .  S
Fe1157     O1158   2.069       .  S
Fe1157     O1166   1.978       .  S
O1158      C1165   1.270       .  A
O1159      C1173   1.269       .  A
O1160      C1165   1.269       .  A
O1161      C1164   1.270       .  A
O1162      C1174   1.266       .  A
O1163      C1176   1.269       .  A
C1164      O1169   1.267       .  A
C1164      C1237   1.480       .  S
C1165      C1273   1.480       .  S
O1167      C1170   1.265       .  A
O1168      C1170   1.270       .  A
C1170      C1264   1.493       .  S
O1171      C1176   1.271       .  A
O1172      C1174   1.269       .  A
C1173      O1175   1.268       .  A
C1173      C1192   1.492       .  S
C1174      C1180   1.487       .  S
C1176      C1249   1.479       .  S
C1177      C1178   1.406       .  A
C1177      C1182   1.417       .  A
C1178      C1179   1.399       .  A
C1178      H1187   1.083       .  S
C1179      C1180   1.418       .  A
C1179      S1183   1.803       .  S
C1180      C1181   1.406       .  A
C1181      C1182   1.393       .  A
C1181      H1188   1.083       .  S
C1182      S1184   1.802       .  S
S1183      H1186   1.408       .  S
S1184      H1185   1.408       .  S
C1189      C1190   1.407       .  A
C1189      C1194   1.420       .  A
C1190      C1191   1.402       .  A
C1190      H1199   1.084       .  S
C1191      C1192   1.417       .  A
C1191      S1195   1.803       .  S
C1192      C1193   1.406       .  A
C1193      C1194   1.399       .  A
C1193      H1200   1.084       .  S
C1194      S1196   1.802       .  S
S1195      H1198   1.408       .  S
S1196      H1197   1.408       .  S
C1201      C1202   1.406       .  A
C1201      C1206   1.418       .  A
C1202      C1203   1.401       .  A
C1202      H1211   1.083       .  S
C1203      C1204   1.414       .  A
C1203      S1207   1.803       .  S
C1204      C1205   1.403       .  A
C1205      C1206   1.394       .  A
C1205      H1212   1.083       .  S
C1206      S1208   1.802       .  S
S1207      H1210   1.407       .  S
S1208      H1209   1.405       .  S
C1213      C2606   1.400       .  A
C1214      C2605   1.399       .  A
C1214      C1215   1.399   1_655  A
C1214      H1223   1.084   1_655  S
C1215      S1219   1.803       .  S
C1216      C2609   1.403   1_455  A
C1217      C2608   1.402       .  A
C1217      C1218   1.398       .  A
C1217      H1224   1.083       .  S
C1218      S1220   1.801       .  S
C1225      C1226   1.405       .  A
C1225      C2622   1.413       .  A
C1226      C1227   1.401   1_455  A
C1226      H1235   1.084       .  S
C1227      C2620   1.414       .  A
C1227      S1231   1.803       .  S
C1228      C2619   1.415       .  A
C1228      C1229   1.403       .  A
C1229      C1230   1.394       .  A
C1229      H1236   1.084       .  S
C1230      C2617   1.410       .  A
C1230      S1232   1.801       .  S
S1231      H2626   1.407       .  S
S1232      H2625   1.407       .  S
H1233      S2624   1.407       .  S
H1234      S2623   1.407       .  S
C1237      C1238   1.404       .  A
C1237      C1242   1.414       .  A
C1238      C1239   1.401       .  A
C1238      H1247   1.085       .  S
C1239      C1240   1.417       .  A
C1239      S1243   1.804       .  S
C1240      C1241   1.405       .  A
C1241      C1242   1.398       .  A
C1241      H1248   1.085       .  S
C1242      S1244   1.804       .  S
S1243      H1246   1.408       .  S
S1244      H1245   1.407       .  S
C1249      C1250   1.403       .  A
C1249      C1254   1.417       .  A
C1250      H1259   1.084       .  S
C1251      C1252   1.415       .  A
C1251      S1255   1.805       .  S
C1252      C1253   1.404       .  A
C1253      H1260   1.084       .  S
C1254      S1256   1.803       .  S
S1255      H1258   1.406       .  S
S1256      H1257   1.407       .  S
C1262      C1263   1.404       .  A
C1262      H1271   1.084       .  S
C1263      S1267   1.800       .  S
C1265      C1266   1.398       .  A
C1265      H1272   1.081       .  S
C1266      S1268   1.804       .  S
S1268      H1269   1.403       .  S
C1273      C1274   1.406       .  A
C1274      C1275   1.400       .  A
C1274      H1283   1.083       .  S
C1275      S1279   1.804       .  S
C1276      C1277   1.402       .  A
C1277      C1278   1.398       .  A
C1277      H1284   1.084       .  S
C1278      S1280   1.802       .  S
C1285      C1286   1.403       .  A
C1285      C1290   1.415       .  A
C1286      C2679   1.397       .  A
C1286      H1295   1.084       .  S
C1287      C2678   1.399   1_455  A
C1287      C1288   1.414       .  A
C1287      S1291   1.803       .  S
C1288      C1289   1.407       .  A
C1289      C2682   1.403   1_455  A
C1289      H1296   1.084       .  S
C1290      C2681   1.402       .  A
C1290      S1292   1.801       .  S
S1291      H1294   1.407       .  S
S1292      H1293   1.407       .  S
C1297      C2690   1.403       .  A
C1298      C2689   1.407       .  A
C1298      C1299   1.404       .  A
C1298      H1307   1.084       .  S
C1299      S1303   1.804       .  S
C1300      C2693   1.402       .  A
C1301      C2692   1.402       .  A
C1301      C1302   1.398   1_656  A
C1301      H1308   1.085       .  S
C1302      S1304   1.801       .  S
C1309      C1310   1.406       .  A
C1309      C1314   1.417       .  A
C1310      C1311   1.403       .  A
C1310      H1319   1.084       .  S
C1311      C1312   1.417       .  A
C1311      S1315   1.803       .  S
C1312      C1313   1.405       .  A
C1313      C1314   1.399       .  A
C1313      H1320   1.082       .  S
C1314      S1316   1.813       .  S
S1315      H1318   1.407       .  S
S1316      H1317   1.406       .  S
C1321      C1326   1.412       .  A
C1322      C1323   1.394       .  A
C1322      H1331   1.084       .  S
C1323      C1324   1.407       .  A
C1323      S1327   1.804       .  S
C1325      C1326   1.397       .  A
C1325      H1332   1.081       .  S
C1326      S1328   1.804       .  S
S1327      H1330   1.405       .  S
S1328      H1329   1.407       .  S
C1334      C1335   1.400       .  A
C1334      H1343   1.084       .  S
C1335      S1339   1.802       .  S
C1337      C1338   1.402       .  A
C1337      H1344   1.084       .  S
C1338      S1340   1.804       .  S
C1345      C1346   1.404       .  A
C1346      C1347   1.396       .  A
C1346      H1355   1.084       .  S
C1347      S1351   1.805       .  S
C1348      C1349   1.406   1_556  A
C1349      C1350   1.399       .  A
C1349      H1356   1.084       .  S
C1350      S1352   1.804       .  S
C1357      C1358   1.406       .  A
C1357      C1362   1.417       .  A
C1358      C1359   1.400       .  A
C1358      H1367   1.083       .  S
C1359      C1360   1.415       .  A
C1359      S1363   1.804       .  S
C1360      C1361   1.402       .  A
C1361      C1362   1.395       .  A
C1361      H1368   1.084       .  S
C1362      S1364   1.804       .  S
S1363      H1366   1.408       .  S
S1364      H1365   1.408       .  S
C1369      C1370   1.409       .  A
C1369      C1374   1.423       .  A
C1370      C1371   1.400       .  A
C1370      H1379   1.083       .  S
C1371      C1372   1.414       .  A
C1371      S1375   1.803       .  S
C1372      C1373   1.403       .  A
C1373      C1374   1.397       .  A
C1373      H1380   1.084       .  S
C1374      S1376   1.803       .  S
S1375      H1378   1.408       .  S
S1376      H1377   1.408       .  S
C1381      C1382   1.408       .  A
C1381      C1386   1.417       .  A
C1382      C1383   1.406       .  A
C1382      H1391   1.083       .  S
C1383      C1384   1.414       .  A
C1383      S1387   1.803       .  S
C1384      C1385   1.402       .  A
C1385      C1386   1.390       .  A
C1385      H1392   1.084       .  S
C1386      S1388   1.805       .  S
S1387      H1390   1.407       .  S
S1388      H1389   1.407       .  S
Fe1393     O1409   2.072       .  S
Fe1393     O1399   2.071       .  S
Fe1393     O1406   2.068       .  S
Fe1393     O1398   2.067       .  S
Fe1393     O1404   1.974       .  S
Fe1394     O1397   2.057       .  S
Fe1394     O1401   2.056       .  S
Fe1394     O1405   2.058       .  S
Fe1394     O1410   2.061       .  S
Fe1394     O1404   1.968       .  S
Fe1395     O1413   2.063       .  S
Fe1395     O1400   2.066       .  S
Fe1395     O1407   2.057       .  S
Fe1395     O1396   2.060       .  S
Fe1395     O1404   1.979       .  S
O1396      C1403   1.267       .  A
O1397      C1411   1.266       .  A
O1398      C1403   1.269       .  A
O1399      C1402   1.271       .  A
O1400      C1412   1.270       .  A
O1401      C1414   1.269       .  A
C1402      O1407   1.268       .  A
C1402      C1693   1.476       .  S
C1403      C1681   1.470       .  S
O1405      C1408   1.265       .  A
O1406      C1408   1.268       .  A
C1408      C1669   1.478       .  S
O1409      C1414   1.271       .  A
O1410      C1412   1.271       .  A
C1411      O1413   1.266       .  A
C1411      C1729   1.483       .  S
C1412      C1720   1.487       .  S
C1414      C1708   1.473       .  S
Fe1415     O1431   2.062       .  S
Fe1415     O1421   2.067       .  S
Fe1415     O1428   2.077       .  S
Fe1415     O1420   2.057       .  S
Fe1415     O1426   1.965       .  S
Fe1416     O1419   2.053       .  S
Fe1416     O1423   2.064       .  S
Fe1416     O1427   2.057       .  S
Fe1416     O1432   2.055       .  S
Fe1416     O1426   1.962       .  S
Fe1417     O1435   2.078       .  S
Fe1417     O1422   2.076       .  S
Fe1417     O1429   2.068       .  S
Fe1417     O1418   2.074       .  S
Fe1417     O1426   1.970       .  S
O1418      C1425   1.273       .  A
O1419      C1433   1.267       .  A
O1420      C1425   1.270       .  A
O1421      C1424   1.267       .  A
O1422      C1434   1.270       .  A
O1423      C1436   1.268       .  A
C1424      O1429   1.268       .  A
C1424      C1609   1.471       .  S
C1425      C1645   1.480       .  S
O1427      C1430   1.268       .  A
O1428      C1430   1.271       .  A
C1430      C1636   1.480       .  S
O1431      C1436   1.268       .  A
O1432      C1434   1.264       .  A
C1433      O1435   1.274       .  A
C1433      C1717   1.491       .  S
C1434      C1657   1.498       .  S
C1436      C1624   1.473       .  S
Fe1437     O1453   2.059       .  S
Fe1437     O1443   2.062       .  S
Fe1437     O1450   2.053       .  S
Fe1437     O1442   2.063       .  S
Fe1437     O1448   1.977       .  S
Fe1438     O1441   2.071       .  S
Fe1438     O1445   2.064       .  S
Fe1438     O1449   2.065       .  S
Fe1438     O1454   2.071       .  S
Fe1438     O1448   1.985       .  S
Fe1439     O1457   2.049       .  S
Fe1439     O1444   2.060       .  S
Fe1439     O1451   2.065       .  S
Fe1439     O1440   2.054       .  S
Fe1439     O1448   1.973       .  S
O1440      C1447   1.264       .  A
O1441      C1455   1.269       .  A
O1442      C1447   1.266       .  A
O1443      C1446   1.270       .  A
O1444      C1456   1.270       .  A
O1445      C1458   1.268       .  A
C1446      O1451   1.270       .  A
C1446      C1588   1.479       .  S
C1447      C1573   1.482       .  S
O1449      C1452   1.269       .  A
O1450      C1452   1.269       .  A
C1452      C1564   1.475       .  S
O1453      C1458   1.267       .  A
O1454      C1456   1.269       .  A
C1455      O1457   1.267       .  A
C1455      C1732   1.480       .  S
C1456      C1660   1.494       .  S
C1458      C1600   1.477       .  S
Fe1459     O1475   2.061       .  S
Fe1459     O1465   2.059       .  S
Fe1459     O1472   2.067       .  S
Fe1459     O1464   2.058       .  S
Fe1459     O1470   1.970       .  S
Fe1460     O1463   2.071       .  S
Fe1460     O1467   2.051       .  S
Fe1460     O1471   2.076       .  S
Fe1460     O1476   2.047       .  S
Fe1460     O1470   1.973       .  S
Fe1461     O1479   2.069       .  S
Fe1461     O1466   2.061       .  S
Fe1461     O1473   2.071       .  S
Fe1461     O1462   2.062       .  S
Fe1461     O1470   1.976       .  S
O1462      C1469   1.266       .  A
O1463      C1477   1.272       .  A
O1464      C1469   1.266       .  A
O1465      C1468   1.270       .  A
O1466      C1478   1.268       .  A
O1467      C1480   1.263       .  A
C1468      O1473   1.272       .  A
C1468      C1696   1.474       .  S
C1469      C1648   1.471       .  S
O1471      C1474   1.273       .  A
O1472      C1474   1.273       .  A
C1474      C1633   1.484       .  S
O1475      C1480   1.265       .  A
O1476      C1478   1.262       .  A
C1477      O1479   1.270       .  A
C1477      C1537   1.495       .  S
C1478      C1549   1.488       .  S
C1480      C1705   1.479       .  S
Fe1481     O1497   2.061       .  S
Fe1481     O1487   2.069       .  S
Fe1481     O1494   2.072       .  S
Fe1481     O1486   2.057       .  S
Fe1481     O1492   1.970       .  S
Fe1482     O1485   2.055       .  S
Fe1482     O1489   2.068       .  S
Fe1482     O1493   2.054       .  S
Fe1482     O1498   2.064       .  S
Fe1482     O1492   1.975       .  S
Fe1483     O1501   2.069       .  S
Fe1483     O1488   2.046       .  S
Fe1483     O1495   2.044       .  S
Fe1483     O1484   2.064       .  S
Fe1483     O1492   1.970       .  S
O1484      C1491   1.268       .  A
O1485      C1499   1.266       .  A
O1486      C1491   1.269       .  A
O1487      C1490   1.269       .  A
O1488      C1500   1.266       .  A
O1489      C1502   1.269       .  A
C1490      O1495   1.264       .  A
C1490      C1672   1.472       .  S
C1491      C1576   1.475       .  S
O1493      C1496   1.265       .  A
O1494      C1496   1.269       .  A
C1496      C1561   1.470       .  S
O1497      C1502   1.268       .  A
O1498      C1500   1.268       .  A
C1499      O1501   1.271       .  A
C1499      C1525   1.493       .  S
C1500      C1552   1.478       .  S
C1502      C1684   1.473       .  S
Fe1503     O1519   2.060       .  S
Fe1503     O1509   2.072       .  S
Fe1503     O1516   2.066       .  S
Fe1503     O1508   2.059       .  S
Fe1503     O1514   1.969       .  S
Fe1504     O1507   2.061       .  S
Fe1504     O1511   2.074       .  S
Fe1504     O1515   2.060       .  S
Fe1504     O1520   2.072       .  S
Fe1504     O1514   1.972       .  S
Fe1505     O1523   2.067       .  S
Fe1505     O1510   2.051       .  S
Fe1505     O1517   2.057       .  S
Fe1505     O1506   2.065       .  S
Fe1505     O1514   1.971       .  S
O1506      C1513   1.269       .  A
O1507      C1521   1.269       .  A
O1508      C1513   1.268       .  A
O1509      C1512   1.270       .  A
O1510      C1522   1.265       .  A
O1511      C1524   1.271       .  A
C1512      O1517   1.268       .  A
C1512      C1585   1.480       .  S
C1513      C1621   1.479       .  S
O1515      C1518   1.265       .  A
O1516      C1518   1.270       .  A
C1518      C1612   1.495       .  S
O1519      C1524   1.270       .  A
O1520      C1522   1.272       .  A
C1521      O1523   1.268       .  A
C1521      C1540   1.493       .  S
C1522      C1528   1.492       .  S
C1524      C1597   1.480       .  S
C1525      C1526   1.407       .  A
C1525      C1530   1.419       .  A
C1526      C1527   1.398       .  A
C1526      H1535   1.083       .  S
C1527      C1528   1.420       .  A
C1527      S1531   1.803       .  S
C1528      C1529   1.406       .  A
C1529      C1530   1.398       .  A
C1529      H1536   1.083       .  S
C1530      S1532   1.803       .  S
S1531      H1534   1.408       .  S
S1532      H1533   1.408       .  S
C1537      C1538   1.408       .  A
C1537      C1542   1.420       .  A
C1538      C1539   1.401       .  A
C1538      H1547   1.083       .  S
C1539      C1540   1.418       .  A
C1539      S1543   1.803       .  S
C1540      C1541   1.406       .  A
C1541      C1542   1.399       .  A
C1541      H1548   1.084       .  S
C1542      S1544   1.804       .  S
S1543      H1546   1.408       .  S
S1544      H1545   1.408       .  S
C1549      C1550   1.408       .  A
C1549      C1554   1.422       .  A
C1550      C1551   1.398       .  A
C1550      H1559   1.083       .  S
C1551      C1552   1.412       .  A
C1551      S1555   1.803       .  S
C1552      C1553   1.402       .  A
C1553      C1554   1.393       .  A
C1553      H1560   1.083       .  S
C1554      S1556   1.804       .  S
S1555      H1558   1.408       .  S
S1556      H1557   1.405       .  S
C1561      C1914   1.411       .  A
C1562      C1563   1.399       .  A
C1562      H1571   1.084       .  S
C1563      C1912   1.418       .  A
C1563      S1567   1.802       .  S
C1564      C1911   1.417   1_554  A
C1565      C1566   1.400       .  A
C1565      H1572   1.083       .  S
C1566      C1909   1.411   1_554  A
C1566      S1568   1.800       .  S
S1567      H1918   1.407       .  S
S1568      H1917   1.406       .  S
H1569      S1916   1.405       .  S
H1570      S1915   1.405       .  S
C1573      C1574   1.408       .  A
C1574      C1575   1.401       .  A
C1574      H1583   1.084       .  S
C1575      S1579   1.804       .  S
C1576      C1577   1.403       .  A
C1577      C1578   1.395   1_655  A
C1577      H1584   1.084       .  S
C1578      S1580   1.801       .  S
C1585      C1586   1.405       .  A
C1585      C1590   1.416       .  A
C1586      C1587   1.401       .  A
C1586      H1595   1.085       .  S
C1587      C1588   1.414       .  A
C1587      S1591   1.804       .  S
C1588      C1589   1.404       .  A
C1589      C1590   1.397       .  A
C1589      H1596   1.085       .  S
C1590      S1592   1.804       .  S
S1591      H1594   1.407       .  S
S1592      H1593   1.407       .  S
C1597      C1598   1.402       .  A
C1597      C1602   1.416       .  A
C1598      C1947   1.396       .  A
C1598      H1607   1.084       .  S
C1599      C1946   1.397   1_554  A
C1599      C1600   1.416       .  A
C1599      S1603   1.805       .  S
C1600      C1601   1.404       .  A
C1601      C1950   1.401   1_554  A
C1601      H1608   1.084       .  S
C1602      C1949   1.403       .  A
C1602      S1604   1.803       .  S
S1603      H1606   1.405       .  S
S1604      H1605   1.407       .  S
C1609      C2306   1.400       .  A
C1609      C1962   1.411   1_554  A
C1610      C2305   1.404       .  A
C1610      C1611   1.407   1_564  A
C1610      H1619   1.084       .  S
C1611      C1960   1.422       .  A
C1611      S1615   1.799       .  S
C1612      C1959   1.424       .  A
C1612      C2309   1.408       .  A
C1613      C2308   1.404       .  A
C1613      C1614   1.399       .  A
C1613      H1620   1.081       .  S
C1614      C1957   1.414       .  A
C1614      S1616   1.803       .  S
S1615      H1966   1.408   1_556  S
S1616      H1617   1.406       .  S
H1618      S1963   1.408       .  S
C1621      C1622   1.406       .  A
C1621      C2322   1.414   1_545  A
C1622      C1623   1.398       .  A
C1622      H1631   1.083       .  S
C1623      C2320   1.412   1_545  A
C1623      S1627   1.804       .  S
C1624      C2319   1.411       .  A
C1624      C1625   1.403       .  A
C1625      C1626   1.397       .  A
C1625      H1632   1.084       .  S
C1626      C2317   1.415       .  A
C1626      S1628   1.802       .  S
S1627      H2326   1.408   1_545  S
S1628      H2325   1.407       .  S
H1629      S2324   1.408   1_545  S
H1630      S2323   1.407       .  S
C1633      C1634   1.404       .  A
C1633      C1638   1.416       .  A
C1634      H1643   1.084       .  S
C1635      C1636   1.415       .  A
C1635      S1639   1.804       .  S
C1636      C1637   1.404       .  A
C1637      H1644   1.084       .  S
C1638      S1640   1.802       .  S
S1639      H1642   1.405       .  S
S1640      H1641   1.407       .  S
C1645      C1998   1.414       .  A
C1646      C1647   1.402   1_454  A
C1646      H1655   1.084       .  S
C1647      C1996   1.409       .  A
C1647      S1651   1.805       .  S
C1648      C1995   1.411       .  A
C1649      C1650   1.402       .  A
C1649      H1656   1.083       .  S
C1650      C1993   1.420       .  A
C1650      S1652   1.810       .  S
S1651      H2002   1.407       .  S
S1652      H2001   1.407       .  S
H1653      S2000   1.407       .  S
H1654      S1999   1.406       .  S
C1657      C1658   1.410       .  A
C1657      C1662   1.424       .  A
C1658      C1659   1.404       .  A
C1658      H1667   1.084       .  S
C1659      C1660   1.417       .  A
C1659      S1663   1.803       .  S
C1660      C1661   1.404       .  A
C1661      C1662   1.400       .  A
C1661      H1668   1.082       .  S
C1662      S1664   1.814       .  S
S1663      H1666   1.408       .  S
S1664      H1665   1.406       .  S
C1669      C2366   1.402       .  A
C1669      C1674   1.415       .  A
C1670      C2365   1.399   1_545  A
C1670      C1671   1.395       .  A
C1670      H1679   1.083       .  S
C1671      C1672   1.414       .  A
C1671      S1675   1.800       .  S
C1672      C2369   1.401   1_545  A
C1673      C2368   1.401       .  A
C1673      C1674   1.396       .  A
C1673      H1680   1.085       .  S
C1674      S1676   1.804       .  S
S1675      H1678   1.407       .  S
S1676      H1677   1.406       .  S
C1681      C2030   1.401   1_554  A
C1681      C2382   1.410       .  A
C1682      C2029   1.400       .  A
C1682      C1683   1.398       .  A
C1682      H1691   1.084       .  S
C1683      C2380   1.416       .  A
C1683      S1687   1.799       .  S
C1684      C2379   1.413   1_545  A
C1684      C2033   1.401       .  A
C1685      C2032   1.404   1_554  A
C1685      C1686   1.399       .  A
C1685      H1692   1.084       .  S
C1686      C2377   1.412   1_545  A
C1686      S1688   1.801       .  S
S1687      H2386   1.407       .  S
S1688      H2385   1.407   1_545  S
H1689      S2384   1.406       .  S
H1690      S2383   1.407   1_545  S
C1693      C1694   1.404   1_554  A
C1693      C2046   1.414       .  A
C1694      C1695   1.397       .  A
C1694      H1703   1.085       .  S
C1695      C2044   1.412       .  A
C1695      S1699   1.805       .  S
C1696      C2043   1.413       .  A
C1696      C1697   1.405       .  A
C1697      C1698   1.402       .  A
C1697      H1704   1.084       .  S
C1698      C2041   1.413       .  A
C1698      S1700   1.804       .  S
S1699      H2050   1.407       .  S
S1700      H2049   1.406       .  S
H1701      S2048   1.405       .  S
H1702      S2047   1.407       .  S
C1705      C1706   1.406       .  A
C1705      C1710   1.415       .  A
C1706      C1707   1.399       .  A
C1706      H1715   1.084       .  S
C1707      C1708   1.412       .  A
C1707      S1711   1.805       .  S
C1708      C1709   1.403       .  A
C1709      C1710   1.397       .  A
C1709      H1716   1.084       .  S
C1710      S1712   1.803       .  S
S1711      H1714   1.405       .  S
S1712      H1713   1.407       .  S
C1717      C1718   1.407       .  A
C1717      C1722   1.420       .  A
C1718      C1719   1.399       .  A
C1718      H1727   1.084       .  S
C1719      C1720   1.416       .  A
C1719      S1723   1.804       .  S
C1720      C1721   1.404       .  A
C1721      C1722   1.397       .  A
C1721      H1728   1.084       .  S
C1722      S1724   1.802       .  S
S1723      H1726   1.408       .  S
S1724      H1725   1.408       .  S
C1729      C1730   1.408       .  A
C1729      C1734   1.417       .  A
C1730      C1731   1.405       .  A
C1730      H1739   1.083       .  S
C1731      C1732   1.413       .  A
C1731      S1735   1.803       .  S
C1732      C1733   1.403       .  A
C1733      C1734   1.392       .  A
C1733      H1740   1.084       .  S
C1734      S1736   1.805       .  S
S1735      H1738   1.407       .  S
S1736      H1737   1.408       .  S
Fe1741     O1757   2.067       .  S
Fe1741     O1747   2.070       .  S
Fe1741     O1754   2.067       .  S
Fe1741     O1746   2.068       .  S
Fe1741     O1752   1.972       .  S
Fe1742     O1745   2.046       .  S
Fe1742     O1749   2.053       .  S
Fe1742     O1753   2.050       .  S
Fe1742     O1758   2.062       .  S
Fe1742     O1752   1.966       .  S
Fe1743     O1761   2.068       .  S
Fe1743     O1748   2.064       .  S
Fe1743     O1755   2.056       .  S
Fe1743     O1744   2.063       .  S
Fe1743     O1752   1.977       .  S
O1744      C1751   1.269       .  A
O1745      C1759   1.263       .  A
O1746      C1751   1.270       .  A
O1747      C1750   1.269       .  A
O1748      C1760   1.268       .  A
O1749      C1762   1.268       .  A
C1750      O1755   1.267       .  A
C1750      C2041   1.474       .  S
C1751      C2029   1.470       .  S
O1753      C1756   1.264       .  A
O1754      C1756   1.267       .  A
C1756      C2017   1.474       .  S
O1757      C1762   1.271       .  A
O1758      C1760   1.270       .  A
C1759      O1761   1.268       .  A
C1759      C2077   1.484       .  S
C1760      C2068   1.490       .  S
C1762      C2056   1.470       .  S
Fe1763     O1779   2.069       .  S
Fe1763     O1769   2.060       .  S
Fe1763     O1776   2.065       .  S
Fe1763     O1768   2.076       .  S
Fe1763     O1774   1.964       .  S
Fe1764     O1767   2.078       .  S
Fe1764     O1771   2.059       .  S
Fe1764     O1775   2.067       .  S
Fe1764     O1780   2.052       .  S
Fe1764     O1774   1.968       .  S
Fe1765     O1783   2.057       .  S
Fe1765     O1770   2.082       .  S
Fe1765     O1777   2.074       .  S
Fe1765     O1766   2.062       .  S
Fe1765     O1774   1.970       .  S
O1766      C1773   1.272       .  A
O1767      C1781   1.272       .  A
O1768      C1773   1.273       .  A
O1769      C1772   1.267       .  A
O1770      C1782   1.271       .  A
O1771      C1784   1.268       .  A
C1772      O1777   1.268       .  A
C1772      C1957   1.480       .  S
C1773      C1993   1.490       .  S
O1775      C1778   1.269       .  A
O1776      C1778   1.269       .  A
C1778      C1984   1.475       .  S
O1779      C1784   1.270       .  A
O1780      C1782   1.265       .  A
C1781      O1783   1.270       .  A
C1781      C2065   1.489       .  S
C1782      C2005   1.487       .  S
C1784      C1972   1.473       .  S
Fe1785     O1801   2.054       .  S
Fe1785     O1791   2.059       .  S
Fe1785     O1798   2.056       .  S
Fe1785     O1790   2.060       .  S
Fe1785     O1796   1.976       .  S
Fe1786     O1789   2.066       .  S
Fe1786     O1793   2.071       .  S
Fe1786     O1797   2.066       .  S
Fe1786     O1802   2.073       .  S
Fe1786     O1796   1.983       .  S
Fe1787     O1805   2.050       .  S
Fe1787     O1792   2.059       .  S
Fe1787     O1799   2.062       .  S
Fe1787     O1788   2.051       .  S
Fe1787     O1796   1.974       .  S
O1788      C1795   1.265       .  A
O1789      C1803   1.268       .  A
O1790      C1795   1.266       .  A
O1791      C1794   1.269       .  A
O1792      C1804   1.269       .  A
O1793      C1806   1.269       .  A
C1794      O1799   1.268       .  A
C1794      C1936   1.479       .  S
C1795      C1921   1.474       .  S
O1797      C1800   1.269       .  A
O1798      C1800   1.269       .  A
C1800      C1912   1.480       .  S
O1801      C1806   1.266       .  A
O1802      C1804   1.270       .  A
C1803      O1805   1.267       .  A
C1803      C2080   1.477       .  S
C1804      C2008   1.493       .  S
C1806      C1948   1.479       .  S
Fe1807     O1823   2.054       .  S
Fe1807     O1813   2.054       .  S
Fe1807     O1820   2.068       .  S
Fe1807     O1812   2.057       .  S
Fe1807     O1818   1.975       .  S
Fe1808     O1811   2.072       .  S
Fe1808     O1815   2.053       .  S
Fe1808     O1819   2.076       .  S
Fe1808     O1824   2.050       .  S
Fe1808     O1818   1.977       .  S
Fe1809     O1827   2.067       .  S
Fe1809     O1814   2.062       .  S
Fe1809     O1821   2.071       .  S
Fe1809     O1810   2.064       .  S
Fe1809     O1818   1.981       .  S
O1810      C1817   1.267       .  A
O1811      C1825   1.272       .  A
O1812      C1817   1.266       .  A
O1813      C1816   1.268       .  A
O1814      C1826   1.268       .  A
O1815      C1828   1.264       .  A
C1816      O1821   1.270       .  A
C1816      C2044   1.473       .  S
C1817      C1996   1.471       .  S
O1819      C1822   1.272       .  A
O1820      C1822   1.272       .  A
C1822      C1981   1.486       .  S
O1823      C1828   1.264       .  A
O1824      C1826   1.263       .  A
C1825      O1827   1.269       .  A
C1825      C1885   1.496       .  S
C1826      C1897   1.488       .  S
C1828      C2053   1.479       .  S
Fe1829     O1845   2.065       .  S
Fe1829     O1835   2.067       .  S
Fe1829     O1842   2.066       .  S
Fe1829     O1834   2.066       .  S
Fe1829     O1840   1.973       .  S
Fe1830     O1833   2.063       .  S
Fe1830     O1837   2.070       .  S
Fe1830     O1841   2.059       .  S
Fe1830     O1846   2.074       .  S
Fe1830     O1840   1.980       .  S
Fe1831     O1849   2.055       .  S
Fe1831     O1836   2.045       .  S
Fe1831     O1843   2.044       .  S
Fe1831     O1832   2.055       .  S
Fe1831     O1840   1.970       .  S
O1832      C1839   1.266       .  A
O1833      C1847   1.268       .  A
O1834      C1839   1.270       .  A
O1835      C1838   1.270       .  A
O1836      C1848   1.266       .  A
O1837      C1850   1.270       .  A
C1838      O1843   1.264       .  A
C1838      C2020   1.473       .  S
C1839      C1924   1.475       .  S
O1841      C1844   1.267       .  A
O1842      C1844   1.269       .  A
C1844      C1909   1.471       .  S
O1845      C1850   1.269       .  A
O1846      C1848   1.270       .  A
C1847      O1849   1.268       .  A
C1847      C1873   1.485       .  S
C1848      C1900   1.480       .  S
C1850      C2032   1.480       .  S
Fe1851     O1867   2.055       .  S
Fe1851     O1857   2.079       .  S
Fe1851     O1864   2.071       .  S
Fe1851     O1856   2.055       .  S
Fe1851     O1862   1.962       .  S
Fe1852     O1855   2.070       .  S
Fe1852     O1859   2.075       .  S
Fe1852     O1863   2.073       .  S
Fe1852     O1868   2.082       .  S
Fe1852     O1862   1.968       .  S
Fe1853     O1871   2.067       .  S
Fe1853     O1858   2.044       .  S
Fe1853     O1865   2.050       .  S
Fe1853     O1854   2.066       .  S
Fe1853     O1862   1.961       .  S
O1854      C1861   1.269       .  A
O1855      C1869   1.270       .  A
O1856      C1861   1.267       .  A
O1857      C1860   1.272       .  A
O1858      C1870   1.265       .  A
O1859      C1872   1.271       .  A
C1860      O1865   1.267       .  A
C1860      C1933   1.478       .  S
C1861      C1969   1.476       .  S
O1863      C1866   1.269       .  A
O1864      C1866   1.272       .  A
C1866      C1960   1.499       .  S
O1867      C1872   1.269       .  A
O1868      C1870   1.273       .  A
C1869      O1871   1.267       .  A
C1869      C1888   1.495       .  S
C1870      C1876   1.478       .  S
C1872      C1945   1.475       .  S
C1873      C1874   1.405       .  A
C1873      C1878   1.417       .  A
C1874      C1875   1.392       .  A
C1874      H1883   1.083       .  S
C1875      C1876   1.414       .  A
C1875      S1879   1.802       .  S
C1876      C1877   1.405       .  A
C1877      C1878   1.403       .  A
C1877      H1884   1.083       .  S
C1878      S1880   1.802       .  S
S1879      H1882   1.408       .  S
S1880      H1881   1.408       .  S
C1885      C1886   1.407       .  A
C1885      C1890   1.420       .  A
C1886      C1887   1.400       .  A
C1886      H1895   1.083       .  S
C1887      C1888   1.419       .  A
C1887      S1891   1.804       .  S
C1888      C1889   1.407       .  A
C1889      C1890   1.402       .  A
C1889      H1896   1.084       .  S
C1890      S1892   1.803       .  S
S1891      H1894   1.408       .  S
S1892      H1893   1.408       .  S
C1897      C1898   1.409       .  A
C1897      C1902   1.420       .  A
C1898      C1899   1.400       .  A
C1898      H1907   1.083       .  S
C1899      C1900   1.412       .  A
C1899      S1903   1.803       .  S
C1900      C1901   1.403       .  A
C1901      C1902   1.394       .  A
C1901      H1908   1.083       .  S
C1902      S1904   1.803       .  S
S1903      H1906   1.408       .  S
S1904      H1905   1.406       .  S
C1910      C1911   1.397       .  A
C1910      H1919   1.084       .  S
C1911      S1915   1.804       .  S
C1913      C1914   1.398       .  A
C1913      H1920   1.083       .  S
C1914      S1916   1.801       .  S
C1921      C1922   1.404       .  A
C1922      C1923   1.399       .  A
C1922      H1931   1.084       .  S
C1923      S1927   1.804       .  S
C1924      C1925   1.402       .  A
C1925      C1926   1.396   1_655  A
C1925      H1932   1.084       .  S
C1926      S1928   1.801       .  S
C1933      C1934   1.404       .  A
C1933      C1938   1.415       .  A
C1934      C1935   1.399       .  A
C1934      H1943   1.085       .  S
C1935      C1936   1.415       .  A
C1935      S1939   1.804       .  S
C1936      C1937   1.404       .  A
C1937      C1938   1.397       .  A
C1937      H1944   1.085       .  S
C1938      S1940   1.804       .  S
S1939      H1942   1.408       .  S
S1940      H1941   1.407       .  S
C1945      C1946   1.402       .  A
C1945      C1950   1.414       .  A
C1946      H1955   1.084       .  S
C1947      C1948   1.415       .  A
C1947      S1951   1.805       .  S
C1948      C1949   1.404       .  A
C1949      H1956   1.084       .  S
C1950      S1952   1.803       .  S
S1951      H1954   1.407       .  S
S1952      H1953   1.407       .  S
C1957      C2654   1.402       .  A
C1958      C2653   1.401       .  A
C1958      C1959   1.404   1_565  A
C1958      H1967   1.084       .  S
C1959      S1963   1.801       .  S
C1960      C2657   1.408       .  A
C1961      C2656   1.406       .  A
C1961      C1962   1.400       .  A
C1961      H1968   1.084       .  S
C1962      S1964   1.805       .  S
S1964      H1965   1.403       .  S
C1969      C1970   1.405       .  A
C1969      C2670   1.412   1_545  A
C1970      C1971   1.397       .  A
C1970      H1979   1.084       .  S
C1971      C2668   1.414   1_545  A
C1971      S1975   1.804       .  S
C1972      C2667   1.410       .  A
C1972      C1973   1.403       .  A
C1973      C1974   1.400       .  A
C1973      H1980   1.084       .  S
C1974      C2665   1.416       .  A
C1974      S1976   1.804       .  S
S1975      H2674   1.408   1_545  S
S1976      H2673   1.407       .  S
H1977      S2672   1.407   1_545  S
H1978      S2671   1.407       .  S
C1981      C1982   1.404       .  A
C1981      C1986   1.417       .  A
C1982      H1991   1.084       .  S
C1983      C1984   1.413       .  A
C1983      S1987   1.804       .  S
C1984      C1985   1.403       .  A
C1985      H1992   1.084       .  S
C1986      S1988   1.803       .  S
S1987      H1990   1.407       .  S
S1988      H1989   1.407       .  S
C1994      C1995   1.402   1_455  A
C1994      H2003   1.084       .  S
C1995      S1999   1.805       .  S
C1997      C1998   1.396   1_556  A
C1997      H2004   1.084       .  S
C1998      S2000   1.801       .  S
C2005      C2006   1.406       .  A
C2005      C2010   1.417       .  A
C2006      C2007   1.403       .  A
C2006      H2015   1.084       .  S
C2007      C2008   1.417       .  A
C2007      S2011   1.802       .  S
C2008      C2009   1.407       .  A
C2009      C2010   1.401       .  A
C2009      H2016   1.082       .  S
C2010      S2012   1.812       .  S
S2011      H2014   1.408       .  S
S2012      H2013   1.406       .  S
C2017      C2714   1.401       .  A
C2017      C2022   1.414       .  A
C2018      C2713   1.399   1_545  A
C2018      C2019   1.395       .  A
C2018      H2027   1.084       .  S
C2019      C2020   1.415       .  A
C2019      S2023   1.800       .  S
C2020      C2717   1.402   1_545  A
C2021      C2716   1.401       .  A
C2021      C2022   1.395       .  A
C2021      H2028   1.077       .  S
C2022      S2024   1.805       .  S
S2023      H2026   1.408       .  S
S2024      H2025   1.406       .  S
C2029      C2730   1.411       .  A
C2030      C2031   1.399       .  A
C2030      H2039   1.084       .  S
C2031      C2728   1.415       .  A
C2031      S2035   1.799       .  S
C2032      C2727   1.415   1_545  A
C2033      C2034   1.397       .  A
C2033      H2040   1.083       .  S
C2034      C2725   1.413   1_545  A
C2034      S2036   1.801       .  S
S2035      H2734   1.407       .  S
S2036      H2733   1.407   1_545  S
H2037      S2732   1.406       .  S
H2038      S2731   1.407   1_545  S
C2041      C2042   1.403       .  A
C2042      C2043   1.396       .  A
C2042      H2051   1.085       .  S
C2043      S2047   1.805       .  S
C2044      C2045   1.404   1_556  A
C2045      C2046   1.401       .  A
C2045      H2052   1.084       .  S
C2046      S2048   1.803       .  S
C2053      C2054   1.407       .  A
C2053      C2058   1.416       .  A
C2054      C2055   1.399       .  A
C2054      H2063   1.084       .  S
C2055      C2056   1.412       .  A
C2055      S2059   1.805       .  S
C2056      C2057   1.401       .  A
C2057      C2058   1.394       .  A
C2057      H2064   1.084       .  S
C2058      S2060   1.803       .  S
S2059      H2062   1.406       .  S
S2060      H2061   1.408       .  S
C2065      C2066   1.406       .  A
C2065      C2070   1.416       .  A
C2066      C2067   1.397       .  A
C2066      H2075   1.084       .  S
C2067      C2068   1.419       .  A
C2067      S2071   1.804       .  S
C2068      C2069   1.407       .  A
C2069      C2070   1.399       .  A
C2069      H2076   1.084       .  S
C2070      S2072   1.803       .  S
S2071      H2074   1.408       .  S
S2072      H2073   1.408       .  S
C2077      C2078   1.408       .  A
C2077      C2082   1.420       .  A
C2078      C2079   1.404       .  A
C2078      H2087   1.083       .  S
C2079      C2080   1.413       .  A
C2079      S2083   1.803       .  S
C2080      C2081   1.401       .  A
C2081      C2082   1.390       .  A
C2081      H2088   1.084       .  S
C2082      S2084   1.806       .  S
S2083      H2086   1.407       .  S
S2084      H2085   1.408       .  S
Fe2089     O2105   2.074       .  S
Fe2089     O2095   2.057       .  S
Fe2089     O2102   2.057       .  S
Fe2089     O2094   2.067       .  S
Fe2089     O2100   1.972       .  S
Fe2090     O2093   2.052       .  S
Fe2090     O2097   2.060       .  S
Fe2090     O2101   2.059       .  S
Fe2090     O2106   2.064       .  S
Fe2090     O2100   1.969       .  S
Fe2091     O2109   2.073       .  S
Fe2091     O2096   2.070       .  S
Fe2091     O2103   2.065       .  S
Fe2091     O2092   2.068       .  S
Fe2091     O2100   1.981       .  S
O2092      C2099   1.269       .  A
O2093      C2107   1.264       .  A
O2094      C2099   1.269       .  A
O2095      C2098   1.268       .  A
O2096      C2108   1.271       .  A
O2097      C2110   1.269       .  A
C2098      O2103   1.270       .  A
C2098      C2389   1.474       .  S
C2099      C2377   1.477       .  S
O2101      C2104   1.265       .  A
O2102      C2104   1.266       .  A
C2104      C2365   1.469       .  S
O2105      C2110   1.272       .  A
O2106      C2108   1.272       .  A
C2107      O2109   1.269       .  A
C2107      C2425   1.489       .  S
C2108      C2416   1.487       .  S
C2110      C2404   1.482       .  S
Fe2111     O2127   2.063       .  S
Fe2111     O2117   2.070       .  S
Fe2111     O2124   2.074       .  S
Fe2111     O2116   2.060       .  S
Fe2111     O2122   1.962       .  S
Fe2112     O2115   2.051       .  S
Fe2112     O2119   2.063       .  S
Fe2112     O2123   2.057       .  S
Fe2112     O2128   2.057       .  S
Fe2112     O2122   1.963       .  S
Fe2113     O2131   2.083       .  S
Fe2113     O2118   2.074       .  S
Fe2113     O2125   2.074       .  S
Fe2113     O2114   2.081       .  S
Fe2113     O2122   1.969       .  S
O2114      C2121   1.274       .  A
O2115      C2129   1.266       .  A
O2116      C2121   1.269       .  A
O2117      C2120   1.270       .  A
O2118      C2130   1.271       .  A
O2119      C2132   1.268       .  A
C2120      O2125   1.269       .  A
C2120      C2305   1.483       .  S
C2121      C2341   1.489       .  S
O2123      C2126   1.268       .  A
O2124      C2126   1.270       .  A
C2126      C2332   1.479       .  S
O2127      C2132   1.270       .  A
O2128      C2130   1.265       .  A
C2129      O2131   1.274       .  A
C2129      C2413   1.490       .  S
C2130      C2353   1.495       .  S
C2132      C2320   1.477       .  S
Fe2133     O2149   2.055       .  S
Fe2133     O2139   2.072       .  S
Fe2133     O2146   2.065       .  S
Fe2133     O2138   2.057       .  S
Fe2133     O2144   1.980       .  S
Fe2134     O2137   2.063       .  S
Fe2134     O2141   2.058       .  S
Fe2134     O2145   2.062       .  S
Fe2134     O2150   2.061       .  S
Fe2134     O2144   1.984       .  S
Fe2135     O2153   2.062       .  S
Fe2135     O2140   2.068       .  S
Fe2135     O2147   2.070       .  S
Fe2135     O2136   2.059       .  S
Fe2135     O2144   1.975       .  S
O2136      C2143   1.266       .  A
O2137      C2151   1.267       .  A
O2138      C2143   1.265       .  A
O2139      C2142   1.271       .  A
O2140      C2152   1.271       .  A
O2141      C2154   1.267       .  A
C2142      O2147   1.271       .  A
C2142      C2284   1.483       .  S
C2143      C2269   1.472       .  S
O2145      C2148   1.268       .  A
O2146      C2148   1.270       .  A
C2148      C2260   1.477       .  S
O2149      C2154   1.267       .  A
O2150      C2152   1.267       .  A
C2151      O2153   1.269       .  A
C2151      C2428   1.485       .  S
C2152      C2356   1.493       .  S
C2154      C2296   1.470       .  S
Fe2155     O2171   2.064       .  S
Fe2155     O2161   2.064       .  S
Fe2155     O2168   2.067       .  S
Fe2155     O2160   2.067       .  S
Fe2155     O2166   1.977       .  S
Fe2156     O2159   2.060       .  S
Fe2156     O2163   2.063       .  S
Fe2156     O2167   2.070       .  S
Fe2156     O2172   2.060       .  S
Fe2156     O2166   1.971       .  S
Fe2157     O2175   2.077       .  S
Fe2157     O2162   2.067       .  S
Fe2157     O2169   2.065       .  S
Fe2157     O2158   2.064       .  S
Fe2157     O2166   1.983       .  S
O2158      C2165   1.268       .  A
O2159      C2173   1.271       .  A
O2160      C2165   1.269       .  A
O2161      C2164   1.269       .  A
O2162      C2174   1.268       .  A
O2163      C2176   1.266       .  A
C2164      O2169   1.269       .  A
C2164      C2392   1.474       .  S
C2165      C2344   1.484       .  S
O2167      C2170   1.272       .  A
O2168      C2170   1.271       .  A
C2170      C2329   1.479       .  S
O2171      C2176   1.267       .  A
O2172      C2174   1.265       .  A
C2173      O2175   1.271       .  A
C2173      C2233   1.494       .  S
C2174      C2245   1.496       .  S
C2176      C2401   1.480       .  S
Fe2177     O2193   2.064       .  S
Fe2177     O2183   2.067       .  S
Fe2177     O2190   2.066       .  S
Fe2177     O2182   2.059       .  S
Fe2177     O2188   1.975       .  S
Fe2178     O2181   2.050       .  S
Fe2178     O2185   2.067       .  S
Fe2178     O2189   2.050       .  S
Fe2178     O2194   2.069       .  S
Fe2178     O2188   1.983       .  S
Fe2179     O2197   2.070       .  S
Fe2179     O2184   2.057       .  S
Fe2179     O2191   2.061       .  S
Fe2179     O2180   2.065       .  S
Fe2179     O2188   1.976       .  S
O2180      C2187   1.269       .  A
O2181      C2195   1.265       .  A
O2182      C2187   1.268       .  A
O2183      C2186   1.270       .  A
O2184      C2196   1.268       .  A
O2185      C2198   1.269       .  A
C2186      O2191   1.266       .  A
C2186      C2368   1.483       .  S
C2187      C2272   1.477       .  S
O2189      C2192   1.265       .  A
O2190      C2192   1.269       .  A
C2192      C2257   1.468       .  S
O2193      C2198   1.268       .  A
O2194      C2196   1.268       .  A
C2195      O2197   1.271       .  A
C2195      C2221   1.490       .  S
C2196      C2248   1.494       .  S
C2198      C2380   1.481       .  S
Fe2199     O2215   2.056       .  S
Fe2199     O2205   2.070       .  S
Fe2199     O2212   2.064       .  S
Fe2199     O2204   2.060       .  S
Fe2199     O2210   1.973       .  S
Fe2200     O2203   2.073       .  S
Fe2200     O2207   2.063       .  S
Fe2200     O2211   2.066       .  S
Fe2200     O2216   2.063       .  S
Fe2200     O2210   1.981       .  S
Fe2201     O2219   2.058       .  S
Fe2201     O2206   2.060       .  S
Fe2201     O2213   2.064       .  S
Fe2201     O2202   2.063       .  S
Fe2201     O2210   1.974       .  S
O2202      C2209   1.269       .  A
O2203      C2217   1.270       .  A
O2204      C2209   1.268       .  A
O2205      C2208   1.269       .  A
O2206      C2218   1.267       .  A
O2207      C2220   1.270       .  A
C2208      O2213   1.268       .  A
C2208      C2281   1.482       .  S
C2209      C2317   1.480       .  S
O2211      C2214   1.266       .  A
O2212      C2214   1.267       .  A
C2214      C2308   1.485       .  S
O2215      C2220   1.271       .  A
O2216      C2218   1.271       .  A
C2217      O2219   1.265       .  A
C2217      C2236   1.496       .  S
C2218      C2224   1.491       .  S
C2220      C2293   1.472       .  S
C2221      C2222   1.405       .  A
C2221      C2226   1.419       .  A
C2222      C2223   1.398       .  A
C2222      H2231   1.083       .  S
C2223      C2224   1.419       .  A
C2223      S2227   1.803       .  S
C2224      C2225   1.406       .  A
C2225      C2226   1.397       .  A
C2225      H2232   1.083       .  S
C2226      S2228   1.804       .  S
S2227      H2230   1.408       .  S
S2228      H2229   1.408       .  S
C2233      C2234   1.406       .  A
C2233      C2238   1.417       .  A
C2234      C2235   1.397       .  A
C2234      H2243   1.083       .  S
C2235      C2236   1.420       .  A
C2235      S2239   1.802       .  S
C2236      C2237   1.409       .  A
C2237      C2238   1.403       .  A
C2237      H2244   1.084       .  S
C2238      S2240   1.803       .  S
S2239      H2242   1.408       .  S
S2240      H2241   1.408       .  S
C2245      C2246   1.410       .  A
C2245      C2250   1.420       .  A
C2246      C2247   1.404       .  A
C2246      H2255   1.083       .  S
C2247      C2248   1.417       .  A
C2247      S2251   1.802       .  S
C2248      C2249   1.406       .  A
C2249      C2250   1.395       .  A
C2249      H2256   1.083       .  S
C2250      S2252   1.803       .  S
S2251      H2254   1.408       .  S
S2252      H2253   1.403       .  S
C2257      C2610   1.412       .  A
C2258      C2259   1.398       .  A
C2258      H2267   1.083       .  S
C2259      C2608   1.415       .  A
C2259      S2263   1.805       .  S
C2260      C2607   1.418   1_554  A
C2261      C2262   1.398       .  A
C2261      H2268   1.083       .  S
C2262      C2605   1.410   1_554  A
C2262      S2264   1.805       .  S
S2263      H2614   1.404       .  S
S2264      H2613   1.406       .  S
H2265      S2612   1.407       .  S
H2266      S2611   1.404       .  S
C2269      C2270   1.404       .  A
C2270      C2271   1.401       .  A
C2270      H2279   1.084       .  S
C2271      S2275   1.803       .  S
C2272      C2273   1.403       .  A
C2273      C2274   1.395   1_655  A
C2273      H2280   1.084       .  S
C2274      S2276   1.801       .  S
C2281      C2282   1.405       .  A
C2281      C2286   1.416       .  A
C2282      C2283   1.403       .  A
C2282      H2291   1.085       .  S
C2283      C2284   1.415       .  A
C2283      S2287   1.804       .  S
C2284      C2285   1.404       .  A
C2285      C2286   1.400       .  A
C2285      H2292   1.085       .  S
C2286      S2288   1.804       .  S
S2287      H2290   1.407       .  S
S2288      H2289   1.407       .  S
C2293      C2294   1.402       .  A
C2293      C2298   1.412       .  A
C2294      C2643   1.392       .  A
C2294      H2303   1.084       .  S
C2295      C2642   1.393   1_554  A
C2295      C2296   1.413       .  A
C2295      S2299   1.806       .  S
C2296      C2297   1.404       .  A
C2297      C2646   1.400   1_554  A
C2297      H2304   1.084       .  S
C2298      C2645   1.400       .  A
C2298      S2300   1.803       .  S
S2299      H2302   1.403       .  S
S2300      H2301   1.407       .  S
C2305      C2658   1.412       .  A
C2306      C2307   1.402       .  A
C2306      H2315   1.084       .  S
C2307      C2656   1.418   1_554  A
C2307      S2311   1.802       .  S
C2308      C2655   1.417       .  A
C2309      C2310   1.394   1_545  A
C2309      H2316   1.083       .  S
C2310      C2653   1.409       .  A
C2310      S2312   1.803       .  S
S2311      H2662   1.408       .  S
S2312      H2313   1.406       .  S
H2314      S2659   1.408       .  S
C2317      C2318   1.407       .  A
C2318      C2319   1.399       .  A
C2318      H2327   1.083       .  S
C2319      S2323   1.803       .  S
C2320      C2321   1.406       .  A
C2321      C2322   1.399       .  A
C2321      H2328   1.084       .  S
C2322      S2324   1.805       .  S
C2329      C2330   1.405       .  A
C2329      C2334   1.412       .  A
C2330      H2339   1.082       .  S
C2331      C2332   1.416       .  A
C2331      S2335   1.804       .  S
C2332      C2333   1.404       .  A
C2333      H2340   1.084       .  S
C2334      S2336   1.802       .  S
S2335      H2338   1.407       .  S
S2336      H2337   1.407       .  S
C2341      C2694   1.418       .  A
C2342      C2343   1.401   1_454  A
C2342      H2351   1.084       .  S
C2343      C2692   1.414       .  A
C2343      S2347   1.804       .  S
C2344      C2691   1.416       .  A
C2345      C2346   1.394       .  A
C2345      H2352   1.085       .  S
C2346      C2689   1.417       .  A
C2346      S2348   1.801       .  S
S2347      H2698   1.407       .  S
S2348      H2697   1.408       .  S
H2349      S2696   1.408       .  S
H2350      S2695   1.407       .  S
C2353      C2354   1.406       .  A
C2353      C2358   1.421       .  A
C2354      C2355   1.400       .  A
C2354      H2363   1.084       .  S
C2355      C2356   1.418       .  A
C2355      S2359   1.803       .  S
C2356      C2357   1.405       .  A
C2357      C2358   1.402       .  A
C2357      H2364   1.083       .  S
C2358      S2360   1.811       .  S
S2359      H2362   1.408       .  S
S2360      H2361   1.407       .  S
C2365      C2370   1.414       .  A
C2366      C2367   1.401       .  A
C2366      H2375   1.085       .  S
C2367      C2368   1.417       .  A
C2367      S2371   1.800       .  S
C2369      C2370   1.397       .  A
C2369      H2376   1.085       .  S
C2370      S2372   1.804       .  S
S2371      H2374   1.407       .  S
S2372      H2373   1.405       .  S
C2377      C2726   1.403   1_554  A
C2378      C2725   1.405       .  A
C2378      C2379   1.401       .  A
C2378      H2387   1.084       .  S
C2379      S2383   1.804       .  S
C2380      C2729   1.405       .  A
C2381      C2728   1.405   1_554  A
C2381      C2382   1.399       .  A
C2381      H2388   1.084       .  S
C2382      S2384   1.802       .  S
C2389      C2390   1.404   1_554  A
C2389      C2742   1.414       .  A
C2390      C2391   1.398       .  A
C2390      H2399   1.084       .  S
C2391      C2740   1.412       .  A
C2391      S2395   1.805       .  S
C2392      C2739   1.412       .  A
C2392      C2393   1.403       .  A
C2393      C2394   1.400       .  A
C2393      H2400   1.084       .  S
C2394      C2737   1.415       .  A
C2394      S2396   1.805       .  S
S2395      H2746   1.407       .  S
S2396      H2745   1.407       .  S
H2397      S2744   1.407       .  S
H2398      S2743   1.407       .  S
C2401      C2402   1.405       .  A
C2401      C2406   1.413       .  A
C2402      C2403   1.403       .  A
C2402      H2411   1.084       .  S
C2403      C2404   1.416       .  A
C2403      S2407   1.803       .  S
C2404      C2405   1.404       .  A
C2405      C2406   1.396       .  A
C2405      H2412   1.084       .  S
C2406      S2408   1.802       .  S
S2407      H2410   1.407       .  S
S2408      H2409   1.405       .  S
C2413      C2414   1.407       .  A
C2413      C2418   1.419       .  A
C2414      C2415   1.402       .  A
C2414      H2423   1.084       .  S
C2415      C2416   1.416       .  A
C2415      S2419   1.803       .  S
C2416      C2417   1.404       .  A
C2417      C2418   1.396       .  A
C2417      H2424   1.084       .  S
C2418      S2420   1.802       .  S
S2419      H2422   1.408       .  S
S2420      H2421   1.408       .  S
C2425      C2426   1.408       .  A
C2425      C2430   1.420       .  A
C2426      C2427   1.405       .  A
C2426      H2435   1.083       .  S
C2427      C2428   1.416       .  A
C2427      S2431   1.803       .  S
C2428      C2429   1.402       .  A
C2429      C2430   1.394       .  A
C2429      H2436   1.084       .  S
C2430      S2432   1.805       .  S
S2431      H2434   1.407       .  S
S2432      H2433   1.408       .  S
Fe2437     O2453   2.070       .  S
Fe2437     O2443   2.059       .  S
Fe2437     O2450   2.059       .  S
Fe2437     O2442   2.064       .  S
Fe2437     O2448   1.969       .  S
Fe2438     O2441   2.052       .  S
Fe2438     O2445   2.057       .  S
Fe2438     O2449   2.056       .  S
Fe2438     O2454   2.061       .  S
Fe2438     O2448   1.968       .  S
Fe2439     O2457   2.072       .  S
Fe2439     O2444   2.074       .  S
Fe2439     O2451   2.072       .  S
Fe2439     O2440   2.066       .  S
Fe2439     O2448   1.977       .  S
O2440      C2447   1.268       .  A
O2441      C2455   1.264       .  A
O2442      C2447   1.268       .  A
O2443      C2446   1.269       .  A
O2444      C2456   1.272       .  A
O2445      C2458   1.268       .  A
C2446      O2451   1.272       .  A
C2446      C2737   1.479       .  S
C2447      C2725   1.477       .  S
O2449      C2452   1.265       .  A
O2450      C2452   1.267       .  A
C2452      C2713   1.468       .  S
O2453      C2458   1.271       .  A
O2454      C2456   1.271       .  A
C2455      O2457   1.269       .  A
C2455      C2773   1.490       .  S
C2456      C2764   1.486       .  S
C2458      C2752   1.479       .  S
Fe2459     O2475   2.057       .  S
Fe2459     O2465   2.072       .  S
Fe2459     O2472   2.071       .  S
Fe2459     O2464   2.048       .  S
Fe2459     O2470   1.958       .  S
Fe2460     O2463   2.051       .  S
Fe2460     O2467   2.065       .  S
Fe2460     O2471   2.061       .  S
Fe2460     O2476   2.063       .  S
Fe2460     O2470   1.959       .  S
Fe2461     O2479   2.087       .  S
Fe2461     O2466   2.060       .  S
Fe2461     O2473   2.062       .  S
Fe2461     O2462   2.090       .  S
Fe2461     O2470   1.966       .  S
O2462      C2469   1.275       .  A
O2463      C2477   1.266       .  A
O2464      C2469   1.267       .  A
O2465      C2468   1.270       .  A
O2466      C2478   1.269       .  A
O2467      C2480   1.270       .  A
C2468      O2473   1.267       .  A
C2468      C2653   1.474       .  S
C2469      C2689   1.484       .  S
O2471      C2474   1.268       .  A
O2472      C2474   1.269       .  A
C2474      C2680   1.480       .  S
O2475      C2480   1.269       .  A
O2476      C2478   1.267       .  A
C2477      O2479   1.274       .  A
C2477      C2761   1.491       .  S
C2478      C2701   1.490       .  S
C2480      C2668   1.480       .  S
Fe2481     O2497   2.053       .  S
Fe2481     O2487   2.065       .  S
Fe2481     O2494   2.066       .  S
Fe2481     O2486   2.056       .  S
Fe2481     O2492   1.977       .  S
Fe2482     O2485   2.063       .  S
Fe2482     O2489   2.054       .  S
Fe2482     O2493   2.061       .  S
Fe2482     O2498   2.055       .  S
Fe2482     O2492   1.982       .  S
Fe2483     O2501   2.062       .  S
Fe2483     O2488   2.063       .  S
Fe2483     O2495   2.069       .  S
Fe2483     O2484   2.060       .  S
Fe2483     O2492   1.975       .  S
O2484      C2491   1.266       .  A
O2485      C2499   1.268       .  A
O2486      C2491   1.265       .  A
O2487      C2490   1.271       .  A
O2488      C2500   1.270       .  A
O2489      C2502   1.266       .  A
C2490      O2495   1.270       .  A
C2490      C2632   1.487       .  S
C2491      C2617   1.471       .  S
O2493      C2496   1.269       .  A
O2494      C2496   1.270       .  A
C2496      C2608   1.472       .  S
O2497      C2502   1.265       .  A
O2498      C2500   1.265       .  A
C2499      O2501   1.270       .  A
C2499      C2776   1.487       .  S
C2500      C2704   1.492       .  S
C2502      C2644   1.474       .  S
Fe2503     O2519   2.059       .  S
Fe2503     O2509   2.060       .  S
Fe2503     O2516   2.067       .  S
Fe2503     O2508   2.065       .  S
Fe2503     O2514   1.976       .  S
Fe2504     O2507   2.071       .  S
Fe2504     O2511   2.060       .  S
Fe2504     O2515   2.079       .  S
Fe2504     O2520   2.058       .  S
Fe2504     O2514   1.972       .  S
Fe2505     O2523   2.064       .  S
Fe2505     O2510   2.067       .  S
Fe2505     O2517   2.064       .  S
Fe2505     O2506   2.058       .  S
Fe2505     O2514   1.980       .  S
O2506      C2513   1.266       .  A
O2507      C2521   1.272       .  A
O2508      C2513   1.268       .  A
O2509      C2512   1.269       .  A
O2510      C2522   1.268       .  A
O2511      C2524   1.265       .  A
C2512      O2517   1.269       .  A
C2512      C2740   1.471       .  S
C2513      C2692   1.478       .  S
O2515      C2518   1.274       .  A
O2516      C2518   1.272       .  A
C2518      C2677   1.484       .  S
O2519      C2524   1.266       .  A
O2520      C2522   1.265       .  A
C2521      O2523   1.268       .  A
C2521      C2581   1.496       .  S
C2522      C2593   1.496       .  S
C2524      C2749   1.477       .  S
Fe2525     O2541   2.067       .  S
Fe2525     O2531   2.063       .  S
Fe2525     O2538   2.065       .  S
Fe2525     O2530   2.064       .  S
Fe2525     O2536   1.975       .  S
Fe2526     O2529   2.056       .  S
Fe2526     O2533   2.063       .  S
Fe2526     O2537   2.057       .  S
Fe2526     O2542   2.070       .  S
Fe2526     O2536   1.985       .  S
Fe2527     O2545   2.064       .  S
Fe2527     O2532   2.055       .  S
Fe2527     O2539   2.058       .  S
Fe2527     O2528   2.062       .  S
Fe2527     O2536   1.973       .  S
O2528      C2535   1.268       .  A
O2529      C2543   1.266       .  A
O2530      C2535   1.269       .  A
O2531      C2534   1.269       .  A
O2532      C2544   1.268       .  A
O2533      C2546   1.268       .  A
C2534      O2539   1.265       .  A
C2534      C2716   1.480       .  S
C2535      C2620   1.480       .  S
O2537      C2540   1.267       .  A
O2538      C2540   1.269       .  A
C2540      C2605   1.467       .  S
O2541      C2546   1.269       .  A
O2542      C2544   1.268       .  A
C2543      O2545   1.270       .  A
C2543      C2569   1.488       .  S
C2544      C2596   1.494       .  S
C2546      C2728   1.480       .  S
Fe2547     O2563   2.049       .  S
Fe2547     O2553   2.078       .  S
Fe2547     O2560   2.073       .  S
Fe2547     O2552   2.053       .  S
Fe2547     O2558   1.962       .  S
Fe2548     O2551   2.058       .  S
Fe2548     O2555   2.077       .  S
Fe2548     O2559   2.063       .  S
Fe2548     O2564   2.080       .  S
Fe2548     O2558   1.964       .  S
Fe2549     O2567   2.072       .  S
Fe2549     O2554   2.046       .  S
Fe2549     O2561   2.058       .  S
Fe2549     O2550   2.075       .  S
Fe2549     O2558   1.961       .  S
O2550      C2557   1.272       .  A
O2551      C2565   1.268       .  A
O2552      C2557   1.268       .  A
O2553      C2556   1.270       .  A
O2554      C2566   1.265       .  A
O2555      C2568   1.273       .  A
C2556      O2561   1.267       .  A
C2556      C2629   1.480       .  S
C2557      C2665   1.478       .  S
O2559      C2562   1.267       .  A
O2560      C2562   1.269       .  A
C2562      C2656   1.487       .  S
O2563      C2568   1.270       .  A
O2564      C2566   1.274       .  A
C2565      O2567   1.269       .  A
C2565      C2584   1.489       .  S
C2566      C2572   1.489       .  S
C2568      C2641   1.472       .  S
C2569      C2570   1.404       .  A
C2569      C2574   1.418       .  A
C2570      C2571   1.396       .  A
C2570      H2579   1.083       .  S
C2571      C2572   1.420       .  A
C2571      S2575   1.802       .  S
C2572      C2573   1.406       .  A
C2573      C2574   1.400       .  A
C2573      H2580   1.083       .  S
C2574      S2576   1.804       .  S
S2575      H2578   1.408       .  S
S2576      H2577   1.408       .  S
C2581      C2582   1.409       .  A
C2581      C2586   1.422       .  A
C2582      C2583   1.401       .  A
C2582      H2591   1.083       .  S
C2583      C2584   1.415       .  A
C2583      S2587   1.803       .  S
C2584      C2585   1.404       .  A
C2585      C2586   1.398       .  A
C2585      H2592   1.084       .  S
C2586      S2588   1.803       .  S
S2587      H2590   1.408       .  S
S2588      H2589   1.408       .  S
C2593      C2594   1.411       .  A
C2593      C2598   1.421       .  A
C2594      C2595   1.405       .  A
C2594      H2603   1.083       .  S
C2595      C2596   1.417       .  A
C2595      S2599   1.802       .  S
C2596      C2597   1.405       .  A
C2597      C2598   1.394       .  A
C2597      H2604   1.083       .  S
C2598      S2600   1.804       .  S
S2599      H2602   1.408       .  S
S2600      H2601   1.405       .  S
C2606      C2607   1.400       .  A
C2606      H2615   1.083       .  S
C2607      S2611   1.804       .  S
C2609      C2610   1.397       .  A
C2609      H2616   1.083       .  S
C2610      S2612   1.805       .  S
C2617      C2618   1.403       .  A
C2618      C2619   1.401       .  A
C2618      H2627   1.084       .  S
C2619      S2623   1.803       .  S
C2620      C2621   1.405       .  A
C2621      C2622   1.397   1_655  A
C2621      H2628   1.084       .  S
C2622      S2624   1.801       .  S
C2629      C2630   1.404       .  A
C2629      C2634   1.414       .  A
C2630      C2631   1.403       .  A
C2630      H2639   1.085       .  S
C2631      C2632   1.418       .  A
C2631      S2635   1.803       .  S
C2632      C2633   1.406       .  A
C2633      C2634   1.398       .  A
C2633      H2640   1.084       .  S
C2634      S2636   1.804       .  S
S2635      H2638   1.408       .  S
S2636      H2637   1.407       .  S
C2641      C2642   1.401       .  A
C2641      C2646   1.414       .  A
C2642      H2651   1.084       .  S
C2643      C2644   1.415       .  A
C2643      S2647   1.805       .  S
C2644      C2645   1.406       .  A
C2645      H2652   1.084       .  S
C2646      S2648   1.803       .  S
S2647      H2650   1.405       .  S
S2648      H2649   1.407       .  S
C2654      C2655   1.400       .  A
C2654      H2663   1.080       .  S
C2655      S2659   1.803       .  S
C2657      C2658   1.396   1_546  A
C2657      H2664   1.083       .  S
C2658      S2660   1.804       .  S
S2660      H2661   1.407       .  S
C2665      C2666   1.404       .  A
C2666      C2667   1.396       .  A
C2666      H2675   1.084       .  S
C2667      S2671   1.800       .  S
C2668      C2669   1.407       .  A
C2669      C2670   1.397       .  A
C2669      H2676   1.084       .  S
C2670      S2672   1.805       .  S
C2677      C2678   1.405       .  A
C2677      C2682   1.413       .  A
C2678      H2687   1.082       .  S
C2679      C2680   1.415       .  A
C2679      S2683   1.804       .  S
C2680      C2681   1.405       .  A
C2681      H2688   1.084       .  S
C2682      S2684   1.803       .  S
S2683      H2686   1.407       .  S
S2684      H2685   1.407       .  S
C2690      C2691   1.401   1_455  A
C2690      H2699   1.084       .  S
C2691      S2695   1.803       .  S
C2693      C2694   1.397   1_556  A
C2693      H2700   1.085       .  S
C2694      S2696   1.800       .  S
C2701      C2702   1.406       .  A
C2701      C2706   1.418       .  A
C2702      C2703   1.397       .  A
C2702      H2711   1.084       .  S
C2703      C2704   1.419       .  A
C2703      S2707   1.804       .  S
C2704      C2705   1.407       .  A
C2705      C2706   1.401       .  A
C2705      H2712   1.083       .  S
C2706      S2708   1.811       .  S
S2707      H2710   1.408       .  S
S2708      H2709   1.407       .  S
C2713      C2718   1.413       .  A
C2714      C2715   1.400       .  A
C2714      H2723   1.080       .  S
C2715      C2716   1.416       .  A
C2715      S2719   1.800       .  S
C2717      C2718   1.396       .  A
C2717      H2724   1.085       .  S
C2718      S2720   1.804       .  S
S2719      H2722   1.407       .  S
S2720      H2721   1.405       .  S
C2726      C2727   1.402       .  A
C2726      H2735   1.084       .  S
C2727      S2731   1.802       .  S
C2729      C2730   1.400       .  A
C2729      H2736   1.084       .  S
C2730      S2732   1.802       .  S
C2737      C2738   1.405       .  A
C2738      C2739   1.399       .  A
C2738      H2747   1.084       .  S
C2739      S2743   1.805       .  S
C2740      C2741   1.403   1_556  A
C2741      C2742   1.398       .  A
C2741      H2748   1.084       .  S
C2742      S2744   1.805       .  S
C2749      C2750   1.405       .  A
C2749      C2754   1.413       .  A
C2750      C2751   1.402       .  A
C2750      H2759   1.084       .  S
C2751      C2752   1.415       .  A
C2751      S2755   1.803       .  S
C2752      C2753   1.404       .  A
C2753      C2754   1.394       .  A
C2753      H2760   1.084       .  S
C2754      S2756   1.803       .  S
S2755      H2758   1.407       .  S
S2756      H2757   1.405       .  S
C2761      C2762   1.408       .  A
C2761      C2766   1.420       .  A
C2762      C2763   1.403       .  A
C2762      H2771   1.084       .  S
C2763      C2764   1.415       .  A
C2763      S2767   1.803       .  S
C2764      C2765   1.403       .  A
C2765      C2766   1.396       .  A
C2765      H2772   1.084       .  S
C2766      S2768   1.802       .  S
S2767      H2770   1.408       .  S
S2768      H2769   1.408       .  S
C2773      C2774   1.408       .  A
C2773      C2778   1.420       .  A
C2774      C2775   1.404       .  A
C2774      H2783   1.083       .  S
C2775      C2776   1.416       .  A
C2775      S2779   1.803       .  S
C2776      C2777   1.403       .  A
C2777      C2778   1.394       .  A
C2777      H2784   1.084       .  S
C2778      S2780   1.805       .  S
S2779      H2782   1.407       .  S
S2780      H2781   1.408       .  S
