geometry optimzed in LAMMPS
_audit_creation_date              2020-12-01 
_audit_creation_method            'lammps2cif' 
_symmetry_space_group_name_H-M    'P1' 
_symmetry_Int_Tables_number       1 
_symmetry_cell_setting            triclinic 
loop_ 
_symmetry_equiv_pos_as_xyz 
  x,y,z 
_cell_length_a                    25.78390183 
_cell_length_b                    25.827520934431256 
_cell_length_c                    25.85828267907379 
_cell_angle_alpha                 91.50288553148962 
_cell_angle_beta                  89.6992443105726 
_cell_angle_gamma                 90.20872262234788 
loop_ 
_atom_site_label 
_atom_site_type_symbol 
_atom_site_fract_x 
_atom_site_fract_y 
_atom_site_fract_z 
_atom_site_charge 
O1          O  0.71851699  0.78567569  0.89429851    -0.78400
C2          C  0.73658411  0.90252808  0.77054702     0.82700
O3          O  0.60807730  0.72483074  0.74870055    -0.79500
O4          O  0.75345990  0.78407803  0.64205096    -0.81000
O5          O  0.86634069  0.72857530  0.78195349    -0.80800
O6          O  0.78725855  0.73364322  0.89328860    -0.79400
Zn7        Zn  0.69935903  0.80116190  0.81939370     1.55700
O8          O  0.85546960  0.78121174  0.71612290    -0.80800
Cd9        Cd  0.79170190  0.71748200  0.81232263     1.59700
Cd10       Cd  0.68843479  0.70659092  0.73333739     1.59600
O11         O  0.77825784  0.63921693  0.80259029    -0.80800
O12         O  0.73815853  0.75602903  0.77131965    -1.91300
Cd13       Cd  0.77667904  0.79897565  0.71935621     1.59900
O14         O  0.70887827  0.62842289  0.75181136    -0.80700
O15         O  0.76579997  0.87609280  0.73957246    -0.79400
C16         C  0.59143348  0.75995633  0.78046292     0.83100
C17         C  0.75366202  0.76088399  0.91820808     0.82800
O18         O  0.70886546  0.88036553  0.80474435    -0.78300
C19         C  0.88425557  0.75258170  0.74307894     0.83600
O20         O  0.62345516  0.78661432  0.80785137    -0.78400
C21         C  0.74545788  0.60990539  0.77940745     0.83700
C22         C  0.72638305  0.74638919  0.62391443     0.84100
O23         O  0.70078860  0.71676803  0.65406231    -0.80900
C24         C  0.83686970  0.17941034  0.50815271     0.86600
C25         C  0.79496346  0.17132331  0.46799242    -0.53600
C26         C  0.76063253  0.21162900  0.46460278     0.09500
C27         C  0.76579553  0.25100148  0.51235684     0.20500
C28         C  0.85727504  0.23570655  0.50279140    -0.54300
C29         C  0.82007086  0.27252704  0.50559621     0.09600
C30         C  0.80416782  0.17882524  0.55670264    -0.53900
C31         C  0.77126130  0.21954258  0.56357858     0.10200
H32         H  0.79483420  0.13930674  0.44028597     0.14700
H33         H  0.73485909  0.28079557  0.51448024     0.00500
H34         H  0.89818039  0.24556985  0.49963088     0.15000
H35         H  0.81260210  0.15197067  0.58696781     0.14800
C36         C  0.20014297  0.16947106  0.50707936     0.86600
C37         C  0.24205939  0.16087501  0.54692761    -0.53600
C38         C  0.27812015  0.19941369  0.54979470     0.09500
C39         C  0.27525562  0.23644141  0.50197826     0.20500
C40         C  0.18345116  0.22703102  0.51324453    -0.54300
C41         C  0.22292144  0.26232860  0.51072722     0.09600
C42         C  0.23137553  0.16542127  0.45732212    -0.53900
C43         C  0.26765195  0.20335361  0.45072445     0.10200
H44         H  0.23950784  0.13164862  0.57613587     0.14700
H45         H  0.30911556  0.26245694  0.49833398     0.00500
H46         H  0.14349531  0.23813207  0.52082665     0.15000
H47         H  0.22059388  0.13803191  0.42672072     0.14800
C48         C  0.78124959  0.65661055  0.53088705     0.86600
C49         C  0.76777569  0.67480006  0.47717627    -0.53600
C50         C  0.76081968  0.72693688  0.47279801     0.09500
C51         C  0.76772382  0.75660208  0.52609460     0.20500
C52         C  0.82742271  0.69023628  0.54984426    -0.54300
C53         C  0.82308322  0.74193188  0.54145562     0.09600
C54         C  0.73702074  0.67590773  0.56454201    -0.53900
C55         C  0.73259138  0.72878403  0.56812457     0.10200
H56         H  0.76788038  0.64820062  0.44384357     0.14700
H57         H  0.76144593  0.79901871  0.52431830     0.00500
H58         H  0.86391503  0.67526448  0.56340896     0.15000
H59         H  0.71957897  0.64993460  0.59217081     0.14800
C60         C  0.22766634  0.64893766  0.49897489     0.86600
C61         C  0.25746204  0.67133144  0.54470578    -0.53600
C62         C  0.25876278  0.72416301  0.54859594     0.09500
C63         C  0.23619142  0.75006883  0.49932948     0.20500
C64         C  0.17576825  0.67809229  0.49730041    -0.54300
C65         C  0.18047324  0.73060102  0.49766193     0.09600
C66         C  0.25763186  0.66919638  0.45293895    -0.53900
C67         C  0.26099135  0.72208671  0.45084359     0.10200
H68         H  0.26816299  0.64706399  0.57675941     0.14700
H69         H  0.24018797  0.79289627  0.49939498     0.00500
H70         H  0.13830887  0.65875931  0.49500338     0.15000
H71         H  0.26828580  0.64490257  0.42007120     0.14800
C72         C  0.34324026  0.50633148  0.68364424     0.86600
C73         C  0.30129693  0.54662579  0.67700550    -0.53600
C74         C  0.26112322  0.54371733  0.71103185     0.09500
C75         C  0.26306777  0.49327674  0.74346503     0.20500
C76         C  0.35495124  0.50632583  0.74284404    -0.54300
C77         C  0.31290862  0.50008875  0.77445639     0.09600
C78         C  0.31597374  0.45431541  0.67390091    -0.53900
C79         C  0.27479324  0.44566214  0.70619508     0.10200
H80         H  0.30867052  0.58111581  0.65471278     0.14700
H81         H  0.22731880  0.48650273  0.76615334     0.00500
H82         H  0.39376027  0.51200203  0.75810541     0.15000
H83         H  0.33335211  0.42279192  0.65157589     0.14800
C84         C  0.30898490  0.48321701  0.16577130     0.86600
C85         C  0.28003055  0.53221910  0.18119879    -0.53600
C86         C  0.27089174  0.53911694  0.23271560     0.09500
C87         C  0.28863212  0.49192505  0.26508241     0.20500
C88         C  0.35743579  0.48277694  0.20092358    -0.54300
C89         C  0.34645072  0.48725524  0.25298763     0.09600
C90         C  0.27578663  0.43942238  0.18672993    -0.53900
C91         C  0.26619416  0.44179951  0.23871263     0.10200
H92         H  0.27312071  0.56253122  0.15361973     0.14700
H93         H  0.27851606  0.49560556  0.30676648     0.00500
H94         H  0.39663221  0.47914863  0.18601501     0.15000
H95         H  0.27018377  0.40338809  0.16489127     0.14800
C96         C  0.71483462  0.49562911  0.85948415     0.86600
C97         C  0.73820897  0.54733357  0.84589482    -0.53600
C98         C  0.74570315  0.55445907  0.79452596     0.09500
C99         C  0.73392311  0.50459243  0.76070647     0.20500
C100        C  0.66649989  0.48940915  0.82452870    -0.54300
C101        C  0.67694477  0.49396675  0.77275818     0.09600
C102        C  0.75176563  0.45523026  0.83742061    -0.53900
C103        C  0.76211246  0.45784421  0.78580647     0.10200
H104        H  0.74157691  0.57871377  0.87462192     0.14700
H105        H  0.74320934  0.50871837  0.71904178     0.00500
H106        H  0.62759884  0.48245794  0.83884186     0.15000
H107        H  0.76083099  0.42112755  0.85946277     0.14800
C108        C  0.67002846  0.51178123  0.34017277     0.86600
C109        C  0.71237138  0.55301735  0.34474718    -0.53600
C110        C  0.75011108  0.54992538  0.30743492     0.09500
C111        C  0.74570251  0.49898173  0.27344181     0.20500
C112        C  0.65340195  0.51165902  0.28246692    -0.54300
C113        C  0.69304251  0.50488485  0.24785570     0.09600
C114        C  0.69842517  0.46031737  0.34455699    -0.53900
C115        C  0.73687548  0.45149853  0.30871042     0.10200
H116        H  0.70636823  0.58798376  0.36839025     0.14700
H117        H  0.77878347  0.49319104  0.24628977     0.00500
H118        H  0.61380229  0.51831418  0.27031199     0.15000
H119        H  0.68439887  0.42935105  0.36796821     0.14800
C120        C  0.51470778  0.83991583  0.22967917     0.86600
C121        C  0.47406791  0.80175521  0.21181580    -0.53600
C122        C  0.46715874  0.76006849  0.24213988     0.09500
C123        C  0.51154521  0.75631471  0.28379904     0.20500
C124        C  0.50528822  0.84971025  0.28888401    -0.54300
C125        C  0.50416932  0.80555748  0.31709419     0.09600
C126        C  0.56479787  0.80997113  0.22763043    -0.53900
C127        C  0.56494491  0.76637035  0.25575116     0.10200
H128        H  0.44733432  0.81221056  0.18140457     0.14700
H129        H  0.51101031  0.72042735  0.30608142     0.00500
H130        H  0.50316939  0.88776187  0.30752238     0.15000
H131        H  0.59996982  0.82583263  0.21066484     0.14800
C132        C  0.51608493  0.17188546  0.19207616     0.86600
C133        C  0.55829582  0.21133621  0.18620103    -0.53600
C134        C  0.56162619  0.24744107  0.22515402     0.09500
C135        C  0.51012571  0.24844974  0.25923690     0.20500
C136        C  0.51513780  0.15608470  0.24997132    -0.54300
C137        C  0.51258585  0.19635782  0.28573326     0.09600
C138        C  0.46794688  0.20381943  0.18602252    -0.53900
C139        C  0.46101345  0.24207948  0.22306560     0.10200
H140        H  0.58944621  0.20363782  0.15882361     0.14700
H141        H  0.50591435  0.28366476  0.28372161     0.00500
H142        H  0.51805711  0.11594954  0.26089591     0.15000
H143        H  0.43779787  0.19237537  0.15926275     0.14800
C144        C  0.47701928  0.85052431  0.79443057     0.86600
C145        C  0.52573338  0.82206731  0.81042943    -0.53600
C146        C  0.53505222  0.77613818  0.78415413     0.09500
C147        C  0.48921291  0.76089930  0.74644005     0.20500
C148        C  0.48241096  0.85328383  0.73496888    -0.54300
C149        C  0.48768351  0.80662754  0.70960871     0.09600
C150        C  0.43379702  0.81248867  0.80433471    -0.53900
C151        C  0.43717406  0.76593561  0.77851107     0.10200
H152        H  0.55477203  0.84052143  0.83474322     0.14700
H153        H  0.49420890  0.72280113  0.72637494     0.00500
H154        H  0.48193739  0.88943266  0.71445631     0.15000
H155        H  0.39831378  0.82605896  0.82277014     0.14800
C156        C  0.52545430  0.21509549  0.66863621     0.86600
C157        C  0.57096408  0.24854846  0.68562474    -0.53600
C158        C  0.57305087  0.25976701  0.73761108     0.09500
C159        C  0.52269290  0.24185492  0.76684619     0.20500
C160        C  0.52370221  0.16955041  0.70569753    -0.54300
C161        C  0.52239069  0.18378572  0.75679286     0.09600
C162        C  0.47994198  0.25010786  0.68370578    -0.53900
C163        C  0.47422846  0.26034266  0.73548714     0.10200
H164        H  0.60199587  0.25857148  0.65923053     0.14700
H165        H  0.52157180  0.25373645  0.80842538     0.00500
H166        H  0.52136335  0.12934064  0.69241571     0.15000
H167        H  0.44947183  0.25945656  0.65664780     0.14800
O168        O  0.39426694  0.21551424  0.73189071    -0.78400
C169        C  0.26775219  0.09478711  0.75396530     0.82700
O170        O  0.24425810  0.24678563  0.62286443    -0.79500
O171        O  0.15607131  0.21272652  0.78235992    -0.81000
O172        O  0.28930359  0.29741188  0.86357696    -0.80800
O173        O  0.39376313  0.29158335  0.77487986    -0.79400
Zn174      Zn  0.32045403  0.19591810  0.71375267     1.55700
O175        O  0.24074113  0.22780594  0.87890001    -0.80800
Cd176      Cd  0.31187387  0.30015814  0.78622578     1.59700
Cd177      Cd  0.22548948  0.27843039  0.69639691     1.59600
O178        O  0.29381215  0.37417678  0.75931028    -0.80800
O179        O  0.27234497  0.24355131  0.74844457    -1.91300
Cd180      Cd  0.23201787  0.19986145  0.79994833     1.59900
O181        O  0.24048857  0.35933865  0.69292229    -0.80700
O182        O  0.23966268  0.11808284  0.78810881    -0.79400
C183        C  0.28137658  0.21848444  0.60486597     0.83100
C184        C  0.41829367  0.25490559  0.75125704     0.82800
O185        O  0.30110144  0.12012980  0.72767467    -0.78300
C186        C  0.26406010  0.26907541  0.89516191     0.83600
O187        O  0.31525976  0.19942786  0.63459330    -0.78400
C188        C  0.26748437  0.39043913  0.72130903     0.83700
C189        C  0.12727494  0.24075213  0.75453930     0.84100
O190        O  0.14585595  0.26790886  0.71792909    -0.80900
O191        O  0.37900356  0.76517117  0.21570892    -0.78400
C192        C  0.24280960  0.73034006  0.10849154     0.82700
O193        O  0.24900956  0.87485271  0.27830991    -0.79500
O194        O  0.13672373  0.71590791  0.24373554    -0.81000
O195        O  0.30005670  0.61777393  0.27557082    -0.80800
O196        O  0.39385819  0.71501625  0.28188661    -0.79400
Zn197      Zn  0.30326054  0.77645977  0.20110519     1.55700
O198        O  0.22742062  0.61914551  0.22891446    -0.80800
Cd199      Cd  0.31382551  0.69787549  0.29237882     1.59700
Cd200      Cd  0.22648934  0.79767063  0.29991501     1.59600
O201        O  0.29699884  0.71320684  0.36819897    -0.80800
O202        O  0.26348214  0.74315840  0.25353459    -1.91300
Cd203      Cd  0.21082534  0.69692665  0.21811658     1.59900
O204        O  0.24012362  0.77814613  0.37930646    -0.80700
O205        O  0.20915102  0.70872840  0.13729823    -0.79400
C206        C  0.26913856  0.88871974  0.23518538     0.83100
C207        C  0.41086179  0.74414310  0.24658250     0.82800
O208        O  0.28383226  0.75076913  0.12798899    -0.78300
C209        C  0.26428976  0.59436653  0.24975068     0.83600
O210        O  0.28888670  0.85503363  0.20383778    -0.78400
C211        C  0.26805799  0.74159745  0.39729693     0.83700
C212        C  0.11678699  0.75787762  0.26181010     0.84100
O213        O  0.14479180  0.79364499  0.28310501    -0.80900
O214        O  0.75354402  0.24188820  0.13481136    -0.78400
C215        C  0.75565247  0.10310131  0.23772690     0.82700
O216        O  0.63012653  0.27294744  0.28738836    -0.79500
O217        O  0.78034881  0.20312429  0.37565835    -0.81000
O218        O  0.88598447  0.28701336  0.26535903    -0.80800
O219        O  0.80883342  0.30605568  0.15403549    -0.79400
Zn220      Zn  0.72814140  0.21514902  0.20541102     1.55700
O221        O  0.88089914  0.20879723  0.30055959    -0.80800
Cd222      Cd  0.81083830  0.30603600  0.23689255     1.59700
Cd223      Cd  0.70777049  0.28257283  0.31539128     1.59600
O224        O  0.78642769  0.38237391  0.26375156    -0.80800
O225        O  0.76137009  0.25095687  0.26366292    -1.91300
Cd226      Cd  0.80050142  0.19626240  0.30008352     1.59900
O227        O  0.72082944  0.36142119  0.31578001    -0.80700
O228        O  0.78129718  0.12045646  0.27655093    -0.79400
C229        C  0.61754889  0.25358301  0.24325069     0.83100
C230        C  0.78339668  0.27862674  0.12057527     0.82800
O231        O  0.73505641  0.13448885  0.20630576    -0.78300
C232        C  0.90702765  0.24873750  0.28837426     0.83600
O233        O  0.65274265  0.23394345  0.21361524    -0.78400
C234        C  0.74979272  0.39558681  0.29524403     0.83700
C235        C  0.75104989  0.22572750  0.40893850     0.84100
O236        O  0.71769608  0.25889500  0.39445942    -0.80900
O237        O  0.80805775  0.37952345  0.78687541    -0.78400
C238        C  0.77861685  0.27634278  0.91089187     0.82700
O239        O  0.89773715  0.21417031  0.73900433    -0.79500
O240        O  0.72957468  0.13833265  0.80256502    -0.81000
O241        O  0.65779669  0.29099719  0.72803251    -0.80800
O242        O  0.74449009  0.38441012  0.72916270    -0.79400
Zn243      Zn  0.82113134  0.30445740  0.80317886     1.55700
O244        O  0.64485784  0.23943276  0.79510134    -0.80800
Cd245      Cd  0.73472221  0.30417718  0.71385373     1.59700
Cd246      Cd  0.81681991  0.20810893  0.72780497     1.59600
O247        O  0.74410299  0.27971801  0.63433283    -0.80800
O248        O  0.77310863  0.25971621  0.76606873    -1.91300
Cd249      Cd  0.72405449  0.22105395  0.81505810     1.59900
O250        O  0.79601639  0.21419421  0.65158880    -0.80700
O251        O  0.74453589  0.24418757  0.89273660    -0.79400
C252        C  0.92065935  0.24758813  0.76796561     0.83100
C253        C  0.77460335  0.40580914  0.76252403     0.82800
O254        O  0.80939258  0.30037221  0.88103110    -0.78300
C255        C  0.62751642  0.26563845  0.75728034     0.83600
O256        O  0.89526468  0.28379788  0.79091184    -0.78400
C257        C  0.76937595  0.23955148  0.61922260     0.83700
C258        C  0.75935202  0.11193027  0.77205702     0.84100
O259        O  0.79503657  0.13383181  0.74600887    -0.80900
C260        C  0.73455387  0.84610966  0.03090300     0.86600
C261        C  0.76360753  0.82517425  0.98385060    -0.53600
C262        C  0.75978344  0.77316969  0.97493018     0.09500
C263        C  0.73148855  0.74505429  0.02080030     0.20500
C264        C  0.67976884  0.82237952  0.02853306    -0.54300
C265        C  0.67748894  0.77002399  0.02092582     0.09600
C266        C  0.75865568  0.81912857  0.07625569    -0.53900
C267        C  0.75667732  0.76604033  0.07328389     0.10200
H268        H  0.77779947  0.85122112  0.95443481     0.14700
H269        H  0.73137302  0.70225693  0.01606223     0.00500
H270        H  0.64488523  0.84572354  0.03171293     0.15000
H271        H  0.77021490  0.84022417  0.11120430     0.14800
C272        C  0.70463079  0.32977597  0.01944803     0.86600
C273        C  0.73874793  0.33375928  0.97139262    -0.53600
C274        C  0.77462709  0.29541240  0.96608707     0.09500
C275        C  0.77747815  0.26106420  0.01554084     0.20500
C276        C  0.68570914  0.27241025  0.01838945    -0.54300
C277        C  0.72394557  0.23606967  0.01637007     0.09600
C278        C  0.74368023  0.33595406  0.06319395    -0.53900
C279        C  0.77860524  0.29696367  0.06585991     0.10200
H280        H  0.73065919  0.35899577  0.93965101     0.14700
H281        H  0.81095530  0.23427562  0.01465114     0.00500
H282        H  0.64495293  0.26291848  0.01549334     0.15000
H283        H  0.73854576  0.36418812  0.09466646     0.14800
C284        C  0.24779419  0.82785620  0.01385656     0.86600
C285        C  0.22157872  0.79906124  0.05684052    -0.53600
C286        C  0.22846301  0.74676273  0.05515355     0.09500
C287        C  0.25410132  0.72743489  0.00224477     0.20500
C288        C  0.30369844  0.80642965  0.00859527    -0.54300
C289        C  0.30686678  0.75396147  0.00427517     0.09600
C290        C  0.22141464  0.80713006  0.96520680    -0.53900
C291        C  0.22583026  0.75498231  0.95572422     0.10200
H292        H  0.20851090  0.81994246  0.09168371     0.14700
H293        H  0.25605577  0.68463010  0.99761482     0.00500
H294        H  0.33815937  0.83054529  0.00653471     0.15000
H295        H  0.20841224  0.83335342  0.93589479     0.14800
C296        C  0.33852717  0.29616819  0.01348528     0.86600
C297        C  0.29879639  0.31448427  0.05386597    -0.53600
C298        C  0.25263492  0.28857690  0.05216799     0.09500
C299        C  0.24782154  0.25392013  0.00063410     0.20500
C300        C  0.33756413  0.23566563  0.01576967    -0.54300
C301        C  0.28933002  0.21371066  0.00892526     0.09600
C302        C  0.31328922  0.30973734  0.96334993    -0.53900
C303        C  0.26870911  0.28389793  0.95224262     0.10200
H304        H  0.31020688  0.33498077  0.08915294     0.14700
H305        H  0.20828468  0.23855528  0.99361681     0.00500
H306        H  0.37179682  0.21283090  0.02353803     0.15000
H307        H  0.33456526  0.33209718  0.93510089     0.14800
O308        O  0.21502359  0.71896777  0.62785156    -0.78400
C309        C  0.24613213  0.59640596  0.73119595     0.82700
O310        O  0.10508099  0.76950399  0.76837421    -0.79500
O311        O  0.25510770  0.70621452  0.87787565    -0.81000
O312        O  0.36182189  0.77382341  0.72908293    -0.80800
O313        O  0.28375090  0.77046743  0.62722150    -0.79400
Zn314      Zn  0.19876054  0.70002003  0.70049101     1.55700
O315        O  0.35962333  0.71474429  0.79061992    -0.80800
Cd316      Cd  0.28583809  0.78481909  0.70811466     1.59700
Cd317      Cd  0.18456842  0.78648239  0.79095502     1.59600
O318        O  0.26845278  0.86165124  0.72428967    -0.80800
O319        O  0.23687466  0.74135747  0.75058632    -1.91300
Cd320      Cd  0.27871151  0.69448009  0.79759352     1.59900
O321        O  0.20098820  0.86743835  0.77852745    -0.80700
O322        O  0.27082105  0.61667329  0.76973411    -0.79400
C323        C  0.09020101  0.73664675  0.73336226     0.83100
C324        C  0.25077181  0.74208380  0.60331797     0.82800
O325        O  0.21672129  0.62354029  0.70331649    -0.78300
C326        C  0.38458556  0.74710131  0.76280275     0.83600
O327        O  0.12342286  0.70984760  0.70811645    -0.78400
C328        C  0.23551228  0.88887217  0.75008027     0.83700
C329        C  0.22433628  0.74029194  0.89818203     0.84100
O330        O  0.19661116  0.76931314  0.86949703    -0.80900
C331        C  0.76357142  0.99994829  0.68082619     0.86600
C332        C  0.74526801  0.05149923  0.70259872    -0.53600
C333        C  0.74692990  0.05701469  0.75523955     0.09500
C334        C  0.76315290  0.00495443  0.78170189     0.20500
C335        C  0.81630195  0.98931897  0.70665318    -0.54300
C336        C  0.81672330  0.99369376  0.75910311     0.09600
C337        C  0.72564779  0.96214135  0.70502697    -0.53900
C338        C  0.72980750  0.95873562  0.75761928     0.10200
H339        H  0.73880460  0.08402195  0.67747700     0.14700
H340        H  0.76188743  0.00730055  0.82462353     0.00500
H341        H  0.85134216  0.98164722  0.68440896     0.15000
H342        H  0.70731171  0.93117853  0.68262037     0.14800
C343        C  0.20822584  0.99876902  0.66241883     0.86600
C344        C  0.22478515  0.94717740  0.68160984    -0.53600
C345        C  0.23088277  0.94397909  0.73332323     0.09500
C346        C  0.22133413  0.99775549  0.76282434     0.20500
C347        C  0.15902800  0.01235076  0.69453672    -0.54300
C348        C  0.16575227  0.01187336  0.74730677     0.09600
C349        C  0.24863148  0.03733592  0.68235184    -0.53900
C350        C  0.25470950  0.04037556  0.73486793     0.10200
H351        H  0.22759087  0.91360268  0.65534157     0.14700
H352        H  0.22835109  0.99707074  0.80503444     0.00500
H353        H  0.12202329  0.02220462  0.67798646     0.15000
H354        H  0.26427965  0.06626521  0.65665042     0.14800
C355        C  0.83936117  0.99814043  0.20463079     0.86600
C356        C  0.80159154  0.04053454  0.19025416    -0.53600
C357        C  0.76055146  0.04639550  0.22308490     0.09500
C358        C  0.75644518  0.00014040  0.26239843     0.20500
C359        C  0.84946516  0.00758454  0.26358101    -0.54300
C360        C  0.80563015  0.00744873  0.29397667     0.09600
C361        C  0.80718401  0.94923259  0.20073935    -0.53900
C362        C  0.76574147  0.94658700  0.23350907     0.10200
H363        H  0.81293302  0.07201001  0.16565556     0.14700
H364        H  0.71953659  0.99941788  0.28432478     0.00500
H365        H  0.88801916  0.01295649  0.27954114     0.15000
H366        H  0.82213167  0.91576040  0.17934301     0.14800
C367        C  0.18953040  0.99362831  0.18022118     0.86600
C368        C  0.22120864  0.94365182  0.17913915    -0.53600
C369        C  0.25973760  0.94236307  0.21510665     0.09500
C370        C  0.26568481  0.99573285  0.24566478     0.20500
C371        C  0.17321890  0.00052882  0.23817435    -0.54300
C372        C  0.21364445  0.00169694  0.27222852     0.09600
C373        C  0.22954270  0.03528061  0.16958062    -0.53900
C374        C  0.26580102  0.04195476  0.20680685     0.10200
H375        H  0.20922149  0.90854270  0.15869153     0.14700
H376        H  0.29953697  0.99605325  0.27195084     0.00500
H377        H  0.13306631  0.00292488  0.25093804     0.15000
H378        H  0.22198900  0.06509265  0.14186467     0.14800
O379        O  0.79886781  0.72383882  0.38973582    -0.78400
C380        C  0.76317230  0.60208663  0.28643774     0.82700
O381        O  0.87670346  0.79698909  0.24950353    -0.79500
O382        O  0.72762414  0.71579566  0.14698501    -0.81000
O383        O  0.64342403  0.78273064  0.30018598    -0.80800
O384        O  0.73293275  0.77919939  0.39972033    -0.79400
Zn385      Zn  0.81367477  0.70810228  0.31427865     1.55700
O386        O  0.64042315  0.71503141  0.24385647    -0.80800
Cd387      Cd  0.72161465  0.79801336  0.31909082     1.59700
Cd388      Cd  0.80122529  0.78650622  0.22497531     1.59600
O389        O  0.73954417  0.87842267  0.29618865    -0.80800
O390        O  0.76226800  0.74551002  0.27414228    -1.91300
Cd391      Cd  0.71865992  0.69775504  0.22834481     1.59900
O392        O  0.76507779  0.85642206  0.21676817    -0.80700
O393        O  0.73270259  0.62123528  0.25270459    -0.79400
C394        C  0.90773322  0.76433357  0.26870459     0.83100
C395        C  0.76539453  0.74707067  0.41861205     0.82800
O396        O  0.79755036  0.62981908  0.30962914    -0.78300
C397        C  0.61811857  0.75091499  0.27066763     0.83600
O398        O  0.89036306  0.72575667  0.29373551    -0.78400
C399        C  0.75358496  0.89149832  0.25029957     0.83700
C400        C  0.76440091  0.74033322  0.12449461     0.84100
O401        O  0.80394160  0.75510913  0.15029111    -0.80900
C402        C  0.97410397  0.65517570  0.69588514     0.86600
C403        C  0.02476912  0.68466637  0.68704935    -0.53600
C404        C  0.03410687  0.72490685  0.72124630     0.09500
C405        C  0.98645609  0.73649099  0.75684560     0.20500
C406        C  0.97296084  0.64399970  0.75464591    -0.54300
C407        C  0.97977794  0.68665822  0.78630276     0.09600
C408        C  0.93387842  0.69743544  0.68792452    -0.53900
C409        C  0.93652005  0.73800399  0.72272743     0.10200
H410        H  0.05326997  0.67239940  0.65841270     0.14700
H411        H  0.99199740  0.77201449  0.78131589     0.00500
H412        H  0.96603569  0.60562760  0.76948610     0.15000
H413        H  0.90145780  0.69293796  0.66168127     0.14800
C414        C  0.00977995  0.73878101  0.17227466     0.86600
C415        C  0.05696877  0.76799318  0.19388647    -0.53600
C416        C  0.06161549  0.76734587  0.24672488     0.09500
C417        C  0.01276226  0.74185985  0.27315073     0.20500
C418        C  0.01177633  0.68536980  0.19769234    -0.54300
C419        C  0.01326061  0.68689467  0.25030692     0.09600
C420        C  0.96491945  0.76766197  0.19704170    -0.53900
C421        C  0.96267360  0.76643810  0.24957597     0.10200
H422        H  0.08965068  0.77898767  0.16998652     0.14700
H423        H  0.01387052  0.74428040  0.31607041     0.00500
H424        H  0.01142758  0.64912959  0.17540609     0.15000
H425        H  0.93274678  0.78064205  0.17361970     0.14800
C426        C  0.02768157  0.28317246  0.85167462     0.86600
C427        C  0.07517847  0.25844203  0.82894433    -0.53600
C428        C  0.07452095  0.24990451  0.77684342     0.09500
C429        C  0.02192110  0.26678717  0.75170079     0.20500
C430        C  0.02193160  0.33277217  0.81984184    -0.54300
C431        C  0.01595583  0.32388340  0.76777510     0.09600
C432        C  0.98308823  0.24779078  0.83490934    -0.53900
C433        C  0.97635627  0.24224770  0.78269952     0.10200
H434        H  0.10944268  0.25316762  0.85263752     0.14700
H435        H  0.01966742  0.25805007  0.70961136     0.00500
H436        H  0.02171900  0.37179069  0.83584175     0.15000
H437        H  0.95279255  0.23752708  0.86232246     0.14800
C438        C  0.01103760  0.33199842  0.33007225     0.86600
C439        C  0.05975747  0.29842979  0.33475187    -0.53600
C440        C  0.06106656  0.25617289  0.30147362     0.09500
C441        C  0.00994356  0.24990737  0.26941503     0.20500
C442        C  0.00796715  0.34274561  0.27141154    -0.54300
C443        C  0.00784584  0.29972471  0.23991573     0.09600
C444        C  0.96744787  0.29379864  0.34195395    -0.53900
C445        C  0.96196339  0.25443453  0.30650710     0.10200
H446        H  0.09383049  0.31039613  0.35639571     0.14700
H447        H  0.00998373  0.21392873  0.24501891     0.00500
H448        H  0.00761014  0.38156536  0.25614441     0.15000
H449        H  0.93784843  0.30172393  0.37103016     0.14800
O450        O  0.22219171  0.36315230  0.23899452    -0.78400
C451        C  0.24242438  0.26899151  0.10596917     0.82700
O452        O  0.14092360  0.20774410  0.29811801    -0.79500
O453        O  0.29580320  0.12923459  0.19584601    -0.81000
O454        O  0.38844410  0.27351644  0.27888483    -0.80800
O455        O  0.29332301  0.36816945  0.28840803    -0.79400
Zn456      Zn  0.20542292  0.28994943  0.21866302     1.55700
O457        O  0.37205003  0.23228681  0.20429563    -0.80800
Cd458      Cd  0.30821175  0.28735708  0.30161440     1.59700
Cd459      Cd  0.22092395  0.19062379  0.28839251     1.59600
O460        O  0.29699357  0.26205986  0.38119882    -0.80800
O461        O  0.25794592  0.24664969  0.25176824    -1.91300
Cd462      Cd  0.29669993  0.21081258  0.19487223     1.59900
O463        O  0.24896650  0.19256669  0.36191095    -0.80700
O464        O  0.27450994  0.23564612  0.12238614    -0.79400
C465        C  0.11362483  0.24406577  0.27955972     0.83100
C466        C  0.25829423  0.38942855  0.26073905     0.82800
O467        O  0.21075210  0.29182711  0.13725041    -0.78300
C468        C  0.40439561  0.25190324  0.23645825     0.83600
O469        O  0.13275804  0.27549553  0.24709106    -0.78400
C470        C  0.27346090  0.22053793  0.39509412     0.83700
C471        C  0.26841883  0.09839411  0.22249547     0.84100
O472        O  0.23633712  0.11598274  0.25658826    -0.80900
C473        C  0.02127057  0.34185126  0.98961182    -0.01900
C474        C  0.03343208  0.29872241  0.01916872     0.06700
C475        C  0.04361890  0.25097930  0.99455307    -0.07900
C476        C  0.04141114  0.24541879  0.94095337     0.04100
C477        C  0.03058235  0.28904877  0.91038263    -0.15100
C478        C  0.02030901  0.33689799  0.93587391    -0.08400
C479        C  0.02812620  0.30029534  0.07577329     0.05100
C480        C  0.99050807  0.26822759  0.09733283    -0.09500
C481        C  0.98252750  0.26780739  0.15043869     0.00100
C482        C  0.01216113  0.30101369  0.18312159    -0.00100
C483        C  0.04996801  0.33338910  0.16137262    -0.13100
C484        C  0.05859698  0.33280896  0.10798539     0.00400
C485        C  0.94318329  0.23292821  0.16893203     0.39700
C486        C  0.09960566  0.36455950  0.08727959     0.36300
C487        C  0.00635477  0.39078017  0.01357215     0.36100
C488        C  0.04934025  0.19401273  0.91875324     0.36800
N489        N  0.91156222  0.20374352  0.18122149    -0.44000
N490        N  0.13222572  0.39010565  0.07043329    -0.44400
N491        N  0.05593476  0.15295102  0.90096701    -0.41800
N492        N  0.99452791  0.42997965  0.03278655    -0.43200
H493        H  0.00891781  0.37058013  0.91510299     0.12900
H494        H  0.05158534  0.21741645  0.01761917     0.09400
H495        H  0.96703778  0.24334666  0.07225665     0.10500
H496        H  0.07398030  0.35785887  0.18625724     0.16300
C497        C  0.05487540  0.46634831  0.37169420    -0.01900
C498        C  0.01015778  0.49425590  0.35865364     0.06700
C499        C  0.96295157  0.46789810  0.35479090    -0.07900
C500        C  0.96091611  0.41404250  0.35589234     0.04100
C501        C  0.00757390  0.38467268  0.35876901    -0.15100
C502        C  0.05361471  0.41202268  0.37095409    -0.08400
C503        C  0.01397514  0.54684513  0.33676873     0.05100
C504        C  0.04982777  0.55389211  0.29645531    -0.09500
C505        C  0.05139341  0.59960267  0.26911764     0.00100
C506        C  0.01616953  0.63974807  0.28155626    -0.00100
C507        C  0.98135797  0.63369241  0.32289348    -0.13100
C508        C  0.97916395  0.58731705  0.34980128     0.00400
C509        C  0.08932534  0.60372089  0.22813648     0.39700
C510        C  0.93972012  0.58172982  0.38912022     0.36300
C511        C  0.10326717  0.49297857  0.38204584     0.36100
C512        C  0.91065873  0.39101392  0.34673793     0.36800
N513        N  0.11936068  0.60660685  0.19492667    -0.44000
N514        N  0.90743879  0.57705931  0.41990084    -0.44400
N515        N  0.87004579  0.37297124  0.34004961    -0.41800
N516        N  0.14147942  0.51524533  0.39027733    -0.43200
H517        H  0.08991954  0.39198713  0.37532874     0.12900
H518        H  0.92807219  0.48875368  0.34503843     0.09400
H519        H  0.07555665  0.52255205  0.28468166     0.10500
H520        H  0.95446238  0.66441048  0.33302888     0.16300
C521        C  0.01100638  0.52013431  0.64890778    -0.01900
C522        C  0.96263160  0.49461169  0.64860483     0.06700
C523        C  0.91738278  0.52432525  0.64928599    -0.07900
C524        C  0.91919898  0.57776557  0.65960549     0.04100
C525        C  0.96790546  0.60376511  0.66491339    -0.15100
C526        C  0.01311145  0.57378438  0.65635785    -0.08400
C527        C  0.95928404  0.44199289  0.66961557     0.05100
C528        C  0.94083144  0.43926720  0.72043108    -0.09500
C529        C  0.95586081  0.39937460  0.75190356     0.00100
C530        C  0.99270686  0.36259240  0.73332765    -0.00100
C531        C  0.00474527  0.36107856  0.68016861    -0.13100
C532        C  0.98629404  0.39947639  0.64783350     0.00400
C533        C  0.93233511  0.39783720  0.80268588     0.39700
C534        C  0.99356606  0.39369152  0.59274466     0.36300
C535        C  0.05917592  0.49185666  0.65254171     0.36100
C536        C  0.87003862  0.60189336  0.67146807     0.36800
N537        N  0.91334883  0.39669382  0.84329822    -0.44000
N538        N  0.99747492  0.38699520  0.54850461    -0.44400
N539        N  0.82992810  0.61994226  0.68077097    -0.41800
N540        N  0.09754699  0.46924061  0.65662599    -0.43200
H541        H  0.05110989  0.59024597  0.66289401     0.12900
H542        H  0.88016815  0.50453468  0.64978781     0.09400
H543        H  0.91760274  0.47056416  0.73701483     0.10500
H544        H  0.02939107  0.33089252  0.66386522     0.16300
C545        C  0.95232035  0.73542439  0.92195990    -0.01900
C546        C  0.98228932  0.70210094  0.95144161     0.06700
C547        C  0.00783622  0.66003996  0.92751466    -0.07900
C548        C  0.00556302  0.65205260  0.87381070     0.04100
C549        C  0.97798629  0.68743546  0.84360138    -0.15100
C550        C  0.95127976  0.72849469  0.86851539    -0.08400
C551        C  0.98980147  0.71252711  0.00692869     0.05100
C552        C  0.95335265  0.69362769  0.04159794    -0.09500
C553        C  0.95883874  0.70308883  0.09454405     0.00100
C554        C  0.00239263  0.73168563  0.11394760    -0.00100
C555        C  0.03815184  0.75163396  0.07813183    -0.13100
C556        C  0.03190200  0.74244162  0.02502351     0.00400
C557        C  0.91913919  0.68219238  0.12793540     0.39700
C558        C  0.06838312  0.76502253  0.98943303     0.36300
C559        C  0.92310421  0.77755099  0.94554306     0.36100
C560        C  0.03434559  0.60931008  0.85105842     0.36800
N561        N  0.88750894  0.66540982  0.15472058    -0.44000
N562        N  0.09699791  0.78360366  0.96066466    -0.44400
N563        N  0.05738883  0.57465053  0.83353169    -0.41800
N564        N  0.89920202  0.81106171  0.96415286    -0.43200
H565        H  0.93031661  0.75638100  0.84634191     0.12900
H566        H  0.03062842  0.63428131  0.95076110     0.09400
H567        H  0.92042415  0.67142391  0.02711068     0.10500
H568        H  0.07095063  0.77472977  0.09048949     0.16300
C569        C  0.94632899  0.01882852  0.10202703    -0.01900
C570        C  0.98474226  0.98504008  0.11907156     0.06700
C571        C  0.97339302  0.95131379  0.15909230    -0.07900
C572        C  0.92678061  0.95497317  0.18625344     0.04100
C573        C  0.88922513  0.99226476  0.17262571    -0.15100
C574        C  0.89878270  0.02175104  0.12815617    -0.08400
C575        C  0.04013698  0.99469893  0.10889816     0.05100
C576        C  0.06014819  0.04075108  0.13018577    -0.09500
C577        C  0.11064441  0.04279283  0.14861448     0.00100
C578        C  0.14226308  0.99775498  0.14534645    -0.00100
C579        C  0.12515608  0.95571285  0.11384144    -0.13100
C580        C  0.07405116  0.95390802  0.09605392     0.00400
C581        C  0.12617867  0.09008802  0.17552597     0.39700
C582        C  0.05560328  0.90841830  0.06832698     0.36300
C583        C  0.95633866  0.05293657  0.05969518     0.36100
C584        C  0.92071841  0.92262624  0.23066240     0.36800
N585        N  0.13773255  0.12848491  0.19655461    -0.44000
N586        N  0.04030531  0.87241128  0.04561780    -0.44400
N587        N  0.91627579  0.89791443  0.26709720    -0.41800
N588        N  0.96485466  0.08030436  0.02593705    -0.43200
H589        H  0.87051422  0.04807008  0.11349104     0.12900
H590        H  0.00324570  0.92556360  0.17276116     0.09400
H591        H  0.03432227  0.07294042  0.13895308     0.10500
H592        H  0.14946431  0.92264773  0.10553952     0.16300
C593        C  0.15441483  0.99167182  0.52357263    -0.01900
C594        C  0.20037157  0.98697706  0.49416386     0.06700
C595        C  0.24788239  0.98328454  0.51962432    -0.07900
C596        C  0.25071983  0.98688653  0.57330373     0.04100
C597        C  0.20507384  0.99575352  0.60338157    -0.15100
C598        C  0.15704891  0.99602765  0.57755969    -0.08400
C599        C  0.20128961  0.99087279  0.43711590     0.05100
C600        C  0.23410864  0.02807066  0.41598365    -0.09500
C601        C  0.23921912  0.03260507  0.36271354     0.00100
C602        C  0.20806320  0.00154067  0.32912866    -0.00100
C603        C  0.17510569  0.96429120  0.35031027    -0.13100
C604        C  0.17300011  0.95754767  0.40367041     0.00400
C605        C  0.27875231  0.06779120  0.34519090     0.39700
C606        C  0.14421299  0.91430474  0.42276276     0.36300
C607        C  0.10406782  0.99251863  0.49942938     0.36100
C608        C  0.30126573  0.98001733  0.59616309     0.36800
N609        N  0.31179403  0.09567761  0.33348543    -0.44000
N610        N  0.12061404  0.88016657  0.43874756    -0.44400
N611        N  0.34172018  0.97416763  0.61426450    -0.41800
N612        N  0.06380143  0.99218663  0.47983890    -0.43200
H613        H  0.12098658  0.99882661  0.59868815     0.12900
H614        H  0.28324931  0.97797426  0.49717554     0.09400
H615        H  0.25735694  0.05268818  0.44148955     0.10500
H616        H  0.15332521  0.93825304  0.32489943     0.16300
C617        C  0.75036355  0.96456105  0.53598304    -0.01900
C618        C  0.79213404  0.99255275  0.51519078     0.06700
C619        C  0.82245739  0.02407223  0.54739646    -0.07900
C620        C  0.81133336  0.02927507  0.59990118     0.04100
C621        C  0.77070436  0.99952253  0.62217333    -0.15100
C622        C  0.74007767  0.96792755  0.58904148    -0.08400
C623        C  0.79864223  0.99742466  0.45911101     0.05100
C624        C  0.76057900  0.02473302  0.43345422    -0.09500
C625        C  0.76362334  0.03165830  0.38048595     0.00100
C626        C  0.80514422  0.00920931  0.35148707    -0.00100
C627        C  0.84487201  0.98393306  0.37810364    -0.13100
C628        C  0.84238242  0.97887643  0.43181803     0.00400
C629        C  0.72383787  0.06348011  0.35874030     0.39700
C630        C  0.88488887  0.95482519  0.45800206     0.36300
C631        C  0.71698477  0.93286642  0.50333127     0.36100
C632        C  0.84334907  0.06481561  0.63006090     0.36800
N633        N  0.69085879  0.08896547  0.34320079    -0.44000
N634        N  0.91947625  0.93637738  0.47895907    -0.44400
N635        N  0.86913831  0.09257219  0.65472785    -0.41800
N636        N  0.69008606  0.90775551  0.47712241    -0.43200
H637        H  0.70728037  0.94648488  0.60328549     0.12900
H638        H  0.85393626  0.04604322  0.53101760     0.09400
H639        H  0.72837813  0.04136496  0.45537193     0.10500
H640        H  0.87731084  0.96699341  0.35699735     0.16300
C641        C  0.92554530  0.04340213  0.84354158    -0.01900
C642        C  0.96667562  0.01150260  0.82619257     0.06700
C643        C  0.95566181  0.96730131  0.79563159    -0.07900
C644        C  0.90596886  0.95816681  0.77662274     0.04100
C645        C  0.86564959  0.99332866  0.78902937    -0.15100
C646        C  0.87527102  0.03403859  0.82486872    -0.08400
C647        C  0.02163946  0.02844520  0.82650381     0.05100
C648        C  0.05876073  0.99513053  0.84676781    -0.09500
C649        C  0.10914876  0.99311386  0.82611762     0.00100
C650        C  0.12230779  0.02447919  0.78388331    -0.00100
C651        C  0.08793284  0.06398751  0.77052783    -0.13100
C652        C  0.03782099  0.06601994  0.79119160     0.00400
C653        C  0.14448788  0.95613295  0.84710164     0.39700
C654        C  0.00134115  0.10110528  0.76886168     0.36300
C655        C  0.93442450  0.08734330  0.87796774     0.36100
C656        C  0.89919573  0.91520779  0.74050894     0.36800
N657        N  0.17231688  0.92721910  0.86603717    -0.44000
N658        N  0.97154045  0.12834826  0.75052036    -0.44400
N659        N  0.89482151  0.88179112  0.71021010    -0.41800
N660        N  0.94060350  0.12245360  0.90599265    -0.43200
H661        H  0.84457576  0.06107892  0.83499787     0.12900
H662        H  0.98717111  0.94254992  0.78218492     0.09400
H663        H  0.04676186  0.96681791  0.87473764     0.10500
H664        H  0.09843813  0.09023192  0.74006799     0.16300
C665        C  0.20709502  0.96886586  0.00099514    -0.01900
C666        C  0.24942716  0.99475577  0.02386985     0.06700
C667        C  0.28487937  0.96729102  0.05304933    -0.07900
C668        C  0.28262706  0.91348063  0.05415668     0.04100
C669        C  0.24553259  0.88630705  0.02314380    -0.15100
C670        C  0.20509044  0.91495652  0.00122995    -0.08400
C671        C  0.25831274  0.05036295  0.01723788     0.05100
C672        C  0.22308779  0.08527939  0.03895438    -0.09500
C673        C  0.23156845  0.13832759  0.03653937     0.00100
C674        C  0.27742355  0.15744957  0.01238283    -0.00100
C675        C  0.31196898  0.12175167  0.98916191    -0.13100
C676        C  0.30192042  0.06851230  0.99025391     0.00400
C677        C  0.19180756  0.17029059  0.06020630     0.39700
C678        C  0.33496409  0.03287651  0.96155264     0.36300
C679        C  0.16628775  0.99678440  0.97594294     0.36100
C680        C  0.31978094  0.88808237  0.08652422     0.36800
N681        N  0.15819506  0.19378455  0.07904491    -0.44000
N682        N  0.36073069  0.00360058  0.93866087    -0.44400
N683        N  0.35050623  0.86823458  0.11170330    -0.41800
N684        N  0.13360369  0.01973897  0.95647967    -0.43200
H685        H  0.17221689  0.89560170  0.98332999     0.12900
H686        H  0.31503099  0.98805737  0.07417090     0.09400
H687        H  0.18862394  0.07077573  0.05813528     0.10500
H688        H  0.34612574  0.13552781  0.96907964     0.16300
C689        C  0.45603448  0.38117787  0.05120727    -0.01900
C690        C  0.49341526  0.36359279  0.01502089     0.06700
C691        C  0.48012707  0.32491502  0.97855211    -0.07900
C692        C  0.43084330  0.30284382  0.97818717     0.04100
C693        C  0.39313173  0.31911868  0.01545845    -0.15100
C694        C  0.40647549  0.35942170  0.05089724    -0.08400
C695        C  0.54873517  0.37719152  0.02029129     0.05100
C696        C  0.57212704  0.36540507  0.06701598    -0.09500
C697        C  0.62535580  0.35918145  0.07007020     0.00100
C698        C  0.65667184  0.36358921  0.02495693    -0.00100
C699        C  0.63365741  0.38360734  0.98040229    -0.13100
C700        C  0.58005309  0.38997629  0.97761002     0.00400
C701        C  0.64508741  0.34269441  0.11904754     0.39700
C702        C  0.55821382  0.40490256  0.92893820     0.36300
C703        C  0.46802951  0.42090978  0.08972047     0.36100
C704        C  0.42018621  0.26370771  0.93856891     0.36800
N705        N  0.66076579  0.33065867  0.15877110    -0.44000
N706        N  0.54142835  0.41677893  0.88958429    -0.44400
N707        N  0.41136631  0.23260843  0.90677429    -0.41800
N708        N  0.47822002  0.45211273  0.12098064    -0.43200
H709        H  0.37900043  0.37526833  0.07849981     0.12900
H710        H  0.50915139  0.31026024  0.95141622     0.09400
H711        H  0.54840141  0.35559270  0.10015596     0.10500
H712        H  0.65569058  0.38951476  0.94553117     0.16300
C713        C  0.43678478  0.70350934  0.04327121    -0.01900
C714        C  0.46441918  0.70551152  0.99586602     0.06700
C715        C  0.43615975  0.71165809  0.94991258    -0.07900
C716        C  0.38410266  0.72656351  0.95211785     0.04100
C717        C  0.35736703  0.72727520  0.99946141    -0.15100
C718        C  0.38319847  0.71263414  0.04426695    -0.08400
C719        C  0.52169846  0.71541023  0.99468976     0.05100
C720        C  0.55658920  0.68338340  0.02056559    -0.09500
C721        C  0.60877944  0.69822672  0.02762689     0.00100
C722        C  0.62719650  0.74472944  0.00641206    -0.00100
C723        C  0.59348435  0.77317957  0.97548163    -0.13100
C724        C  0.54107456  0.76082507  0.97210679     0.00400
C725        C  0.64081106  0.66722166  0.06004159     0.39700
C726        C  0.50666805  0.79917463  0.95178855     0.36300
C727        C  0.46296572  0.69880940  0.09212500     0.36100
C728        C  0.36126508  0.75107267  0.90846899     0.36800
N729        N  0.66583065  0.64178876  0.08622823    -0.44000
N730        N  0.47689223  0.82870515  0.93719388    -0.44400
N731        N  0.34059137  0.77392846  0.87682804    -0.41800
N732        N  0.48393199  0.69519553  0.13131389    -0.43200
H733        H  0.36288923  0.71386029  0.08100064     0.12900
H734        H  0.45668337  0.71326922  0.91324445     0.09400
H735        H  0.54225335  0.64849161  0.03812528     0.10500
H736        H  0.60704687  0.80832280  0.95761247     0.16300
C737        C  0.75903142  0.09628503  0.99003580    -0.01900
C738        C  0.72141451  0.07009711  0.01873436     0.06700
C739        C  0.67879866  0.09724387  0.03917463    -0.07900
C740        C  0.67550538  0.15105591  0.03491556     0.04100
C741        C  0.71702435  0.17860973  0.01192179    -0.15100
C742        C  0.75660947  0.14991309  0.98676351    -0.08400
C743        C  0.72394249  0.01353591  0.02365689     0.05100
C744        C  0.76387204  0.99185901  0.05261469    -0.09500
C745        C  0.77025335  0.93805374  0.05370140     0.00100
C746        C  0.73253754  0.90515559  0.03046867    -0.00100
C747        C  0.69579520  0.92781839  0.99756433    -0.13100
C748        C  0.69155174  0.98118748  0.99381064     0.00400
C749        C  0.81951160  0.91858039  0.07063373     0.39700
C750        C  0.65764152  0.00188516  0.95519845     0.36300
C751        C  0.79978016  0.06840591  0.96293326     0.36100
C752        C  0.62770068  0.17525591  0.05123469     0.36800
N753        N  0.85963389  0.90294865  0.08246520    -0.44000
N754        N  0.63183506  0.01884614  0.92337513    -0.44400
N755        N  0.58808243  0.19366263  0.06188062    -0.41800
N756        N  0.83186327  0.04500168  0.94153061    -0.43200
H757        H  0.78617674  0.16914372  0.96432822     0.12900
H758        H  0.64782037  0.07615767  0.05797296     0.09400
H759        H  0.79203202  0.01716720  0.07137313     0.10500
H760        H  0.67139985  0.90373786  0.97274904     0.16300
C761        C  0.48571939  0.97110254  0.88495344    -0.01900
C762        C  0.45755528  0.00670286  0.85641911     0.06700
C763        C  0.42433973  0.98796284  0.81756311    -0.07900
C764        C  0.42682667  0.93635025  0.80053972     0.04100
C765        C  0.46564384  0.90337577  0.82035930    -0.15100
C766        C  0.49226990  0.92073637  0.86518733    -0.08400
C767        C  0.47841807  0.05944868  0.85010682     0.05100
C768        C  0.52996911  0.06233522  0.83204266    -0.09500
C769        C  0.54671666  0.10457451  0.80405065     0.00100
C770        C  0.51299333  0.14625689  0.79730060    -0.00100
C771        C  0.46461768  0.14696777  0.82197836    -0.13100
C772        C  0.44606488  0.10311480  0.84643847     0.00400
C773        C  0.59586239  0.10172772  0.77728995     0.39700
C774        C  0.39175672  0.10178782  0.85989084     0.36300
C775        C  0.51044365  0.98687974  0.93278336     0.36100
C776        C  0.39292697  0.92060410  0.75871982     0.36800
N777        N  0.63440381  0.09951848  0.75434006    -0.44000
N778        N  0.34764677  0.10194540  0.86824860    -0.44400
N779        N  0.36660206  0.90865800  0.72433645    -0.41800
N780        N  0.52889313  0.99928701  0.97189898    -0.43200
H781        H  0.51902318  0.89630546  0.88488592     0.12900
H782        H  0.40090561  0.01473255  0.79614743     0.09400
H783        H  0.55495130  0.02869421  0.83345595     0.10500
H784        H  0.43874546  0.17919586  0.81674658     0.16300
C785        C  0.47438588  0.17016851  0.53623046    -0.01900
C786        C  0.52027422  0.16484024  0.50711331     0.06700
C787        C  0.56817228  0.16697397  0.53237516    -0.07900
C788        C  0.57102899  0.17980136  0.58515068     0.04100
C789        C  0.52532654  0.19484878  0.61254199    -0.15100
C790        C  0.47722425  0.18423775  0.58856909    -0.08400
C791        C  0.51965222  0.16961180  0.45043299     0.05100
C792        C  0.53672544  0.21665052  0.43136737    -0.09500
C793        C  0.53379224  0.22731265  0.37902555     0.00100
C794        C  0.51415632  0.18917263  0.34327578    -0.00100
C795        C  0.49648555  0.14171523  0.36330698    -0.13100
C796        C  0.49926950  0.13170939  0.41627248     0.00400
C797        C  0.55054612  0.27866363  0.36600692     0.39700
C798        C  0.48135039  0.08246195  0.43473725     0.36300
C799        C  0.42399010  0.16386891  0.51277351     0.36100
C800        C  0.62099488  0.17540626  0.60961531     0.36800
N801        N  0.56337006  0.32083091  0.35844178    -0.44000
N802        N  0.46692456  0.04312298  0.44982618    -0.44400
N803        N  0.66113882  0.17155362  0.62894219    -0.41800
N804        N  0.38373944  0.15805613  0.49388938    -0.43200
H805        H  0.44132028  0.18763657  0.61026089     0.12900
H806        H  0.60354651  0.16051754  0.51024531     0.09400
H807        H  0.55137490  0.24616067  0.45829481     0.10500
H808        H  0.47956431  0.11231818  0.33793136     0.16300
C809        C  0.54032510  0.78231012  0.45665348    -0.01900
C810        C  0.49598821  0.80007060  0.48418679     0.06700
C811        C  0.45438194  0.82035615  0.45613125    -0.07900
C812        C  0.45662469  0.82325053  0.40188307     0.04100
C813        C  0.50072770  0.80506833  0.37463864    -0.15100
C814        C  0.54202824  0.78438736  0.40247901    -0.08400
C815        C  0.49359900  0.79989120  0.54213342     0.05100
C816        C  0.53082227  0.82834999  0.57051915    -0.09500
C817        C  0.53027275  0.82979116  0.62476499     0.00100
C818        C  0.49202811  0.80214565  0.65209053    -0.00100
C819        C  0.45518690  0.77295576  0.62393333    -0.13100
C820        C  0.45522068  0.77218484  0.56945747     0.00400
C821        C  0.56983489  0.85951602  0.65161841     0.39700
C822        C  0.41547981  0.74280110  0.54253307     0.36300
C823        C  0.58440642  0.76114714  0.48302377     0.36100
C824        C  0.41294695  0.84402181  0.37465087     0.36800
N825        N  0.60132402  0.88340850  0.67336646    -0.44000
N826        N  0.38342563  0.71952119  0.52096555    -0.44400
N827        N  0.37831380  0.86065866  0.35223116    -0.41800
N828        N  0.61985257  0.74443774  0.50411559    -0.43200
H829        H  0.57599447  0.77014085  0.38183996     0.12900
H830        H  0.42035613  0.83459217  0.47671796     0.09400
H831        H  0.56026344  0.85003054  0.55010678     0.10500
H832        H  0.42541916  0.75189882  0.64450302     0.16300
C833        C  0.48116655  0.97296980  0.18104227    -0.01900
C834        C  0.50952423  0.97430535  0.13416408     0.06700
C835        C  0.53340923  0.92950611  0.11471370    -0.07900
C836        C  0.53345676  0.88481954  0.14385950     0.04100
C837        C  0.51328522  0.88644318  0.19526162    -0.15100
C838        C  0.48339574  0.92932481  0.21100176    -0.08400
C839        C  0.52638117  0.02461825  0.11533399     0.05100
C840        C  0.57039112  0.04390397  0.14038230    -0.09500
C841        C  0.56881259  0.09302018  0.16347706     0.00100
C842        C  0.52511555  0.12528665  0.15573763    -0.00100
C843        C  0.48936406  0.11019155  0.11693574    -0.13100
C844        C  0.48930465  0.05924103  0.09755905     0.00400
C845        C  0.60697062  0.10458383  0.20275272     0.39700
C846        C  0.44585592  0.04030589  0.06798696     0.36300
C847        C  0.45288697  0.01726070  0.20163299     0.36100
C848        C  0.55384629  0.83807935  0.11981248     0.36800
N849        N  0.63527326  0.11334012  0.23638708    -0.44000
N850        N  0.41111353  0.02387978  0.04478238    -0.44400
N851        N  0.56978422  0.80014548  0.10117752    -0.41800
N852        N  0.43000479  0.05235460  0.21847817    -0.43200
H853        H  0.46150957  0.92930708  0.24681623     0.12900
H854        H  0.55383109  0.93018945  0.07793620     0.09400
H855        H  0.60017420  0.01710226  0.15223908     0.10500
H856        H  0.45852497  0.13515028  0.10494901     0.16300
C857        C  0.72657798  0.53489479  0.11065592    -0.01900
C858        C  0.68853968  0.50679798  0.08270665     0.06700
C859        C  0.64854721  0.48195711  0.10944939    -0.07900
C860        C  0.64769756  0.48190054  0.16341537     0.04100
C861        C  0.68779348  0.50725768  0.19122299    -0.15100
C862        C  0.72627750  0.53415629  0.16424710    -0.08400
C863        C  0.69234571  0.50019552  0.02598330     0.05100
C864        C  0.73952253  0.48328059  0.00488531    -0.09500
C865        C  0.74801049  0.48261093  0.95182247     0.00100
C866        C  0.70635116  0.49278618  0.91769104    -0.00100
C867        C  0.65847005  0.50862784  0.93942163    -0.13100
C868        C  0.65135212  0.51264245  0.99294462     0.08400
C869        C  0.80104315  0.47523674  0.93474961     0.39700
C870        C  0.60233981  0.53140224  0.01296588     0.36300
C871        C  0.76593108  0.56555668  0.08549509     0.36100
C872        C  0.60699981  0.45318965  0.18854151     0.36800
N873        N  0.84355234  0.46943321  0.92126291    -0.44000
N874        N  0.56305751  0.54583726  0.02954105    -0.44400
N875        N  0.57406833  0.43022081  0.20823205    -0.41800
N876        N  0.79737311  0.59027009  0.06555076    -0.43200
H877        H  0.75691954  0.55444957  0.18486464     0.12900
H878        H  0.61856408  0.46153017  0.08808265     0.09400
H879        H  0.77108403  0.47332596  0.03035573     0.10500
H880        H  0.62702349  0.52071931  0.91511775     0.16300
C881        C  0.41897787  0.52789126  0.37393579    -0.01900
C882        C  0.46525182  0.49967209  0.36764131     0.06700
C883        C  0.46815866  0.46030959  0.32922077    -0.07900
C884        C  0.42852470  0.45338257  0.29314284     0.04100
C885        C  0.38572063  0.48724407  0.29456092    -0.15100
C886        C  0.37992967  0.52213624  0.33690525    -0.08400
C887        C  0.51518029  0.51870371  0.38875560     0.05100
C888        C  0.54678686  0.48431828  0.41508766    -0.09500
C889        C  0.60083117  0.48736652  0.41015778     0.00100
C890        C  0.62265986  0.52286160  0.37506384    -0.00100
C891        C  0.59184284  0.56539038  0.36166881    -0.13100
C892        C  0.53799451  0.56296617  0.36721104     0.00400
C893        C  0.63160197  0.45472277  0.44221182     0.39700
C894        C  0.50676817  0.60083782  0.34173975     0.36300
C895        C  0.41210270  0.56490502  0.41620677     0.36100
C896        C  0.43292785  0.41148794  0.25527080     0.36800
N897        N  0.65561802  0.42827215  0.46837093    -0.44000
N898        N  0.48021665  0.62988164  0.32136475    -0.44400
N899        N  0.43636973  0.37781237  0.22504818    -0.41800
N900        N  0.40607640  0.59438928  0.45016300    -0.43200
H901        H  0.34613756  0.54686640  0.33989339     0.12900
H902        H  0.50325541  0.43748539  0.32495556     0.09400
H903        H  0.52927519  0.45236438  0.43532532     0.10500
H904        H  0.60849400  0.59580807  0.33857177     0.16300
C905        C  0.59515968  0.54086966  0.66411416    -0.01900
C906        C  0.55178708  0.50815150  0.66789248     0.06700
C907        C  0.55351873  0.46497345  0.69965509    -0.07900
C908        C  0.59562153  0.45744368  0.73206245     0.04100
C909        C  0.63671125  0.49353643  0.73250190    -0.15100
C910        C  0.63766242  0.53285680  0.69596223    -0.08400
C911        C  0.50050781  0.52351890  0.64950438     0.05100
C912        C  0.47340314  0.48918829  0.61676363    -0.09500
C913        C  0.41925989  0.48762131  0.61842716     0.00100
C914        C  0.39274695  0.52034261  0.65436131    -0.00100
C915        C  0.41968962  0.56390525  0.67454118    -0.13100
C916        C  0.47357714  0.56377174  0.67569514     0.00400
C917        C  0.39364234  0.45435000  0.58114066     0.39700
C918        C  0.49901933  0.59823585  0.71261672     0.36300
C919        C  0.59476118  0.58535890  0.63144054     0.36100
C920        C  0.59516398  0.41327294  0.76512411     0.36800
N921        N  0.37601138  0.42793121  0.54897366    -0.44000
N922        N  0.51941387  0.62476037  0.74306318    -0.44400
N923        N  0.59486923  0.37805016  0.79184375    -0.41800
N924        N  0.59390888  0.62137873  0.60577921    -0.43200
H925        H  0.66995458  0.55958889  0.69451561     0.12900
H926        H  0.52012995  0.43941704  0.70212475     0.09400
H927        H  0.49453847  0.46044354  0.59379837     0.10500
H928        H  0.39929363  0.59207037  0.69894009     0.16300
C929        C  0.36617113  0.47896982  0.90923997    -0.01900
C930        C  0.32447320  0.49421337  0.94108918     0.06700
C931        C  0.28011678  0.51471280  0.91880195    -0.07900
C932        C  0.27570152  0.51834687  0.86526870     0.04100
C933        C  0.31616538  0.49966599  0.83228105    -0.15100
C934        C  0.36145670  0.48044884  0.85537987    -0.08400
C935        C  0.32480824  0.48710171  0.99771526     0.05100
C936        C  0.35797445  0.51707533  0.02912308    -0.09500
C937        C  0.35493041  0.51505965  0.08319087     0.00100
C938        C  0.31901764  0.48109725  0.10707326    -0.00100
C939        C  0.28601055  0.45119078  0.07440916    -0.13100
C940        C  0.28895635  0.45363563  0.02073086     0.00400
C941        C  0.38690770  0.55091208  0.11272900     0.39700
C942        C  0.25271657  0.42324787  0.98996717     0.36300
C943        C  0.41438948  0.46333554  0.93157071     0.36100
C944        C  0.22960603  0.54329269  0.84702809     0.36800
N945        N  0.41263752  0.57978355  0.13613579    -0.44000
N946        N  0.22340638  0.39946033  0.96521879    -0.44400
N947        N  0.19200266  0.56352672  0.83417132    -0.41800
N948        N  0.45294930  0.45296644  0.95120423    -0.43200
H949        H  0.39330190  0.46613011  0.83162323     0.12900
H950        H  0.24859086  0.52803471  0.94369864     0.09400
H951        H  0.38470957  0.54390943  0.01132841     0.10500
H952        H  0.25497619  0.42795430  0.08972235     0.16300
C953        C  0.95298633  0.74472235  0.47962761    -0.01900
C954        C  0.97525450  0.79100306  0.49992412     0.06700
C955        C  0.94334716  0.82637222  0.52757295    -0.07900
C956        C  0.89146011  0.81368445  0.53910256     0.04100
C957        C  0.87053540  0.76661645  0.51988080    -0.15100
C958        C  0.90046204  0.73580789  0.48552730    -0.08400
C959        C  0.03238369  0.79849600  0.49633341     0.05100
C960        C  0.05639319  0.78544225  0.44877389    -0.09500
C961        C  0.10618696  0.76457852  0.44787186     0.00100
C962        C  0.13508104  0.76409890  0.49377877    -0.00100
C963        C  0.11508892  0.78701120  0.53915746    -0.13100
C964        C  0.06332785  0.80292302  0.54132776     0.00400
C965        C  0.12393307  0.73724942  0.40171771     0.39700
C966        C  0.04181734  0.81667569  0.59144292     0.36300
C967        C  0.98397638  0.70167473  0.46026787     0.36100
C968        C  0.86169663  0.84790962  0.57259787     0.36800
N969        N  0.13830620  0.71342472  0.36599400    -0.44000
N970        N  0.02502077  0.82756037  0.63185372    -0.44400
N971        N  0.83809815  0.87575981  0.59935158    -0.41800
N972        N  0.00943145  0.66721746  0.44623867    -0.43200
H973        H  0.88445372  0.70009764  0.46912859     0.12900
H974        H  0.95980953  0.86217144  0.54300265     0.09400
H975        H  0.03334075  0.78330949  0.41377976     0.10500
H976        H  0.13777232  0.78654523  0.57436122     0.16300
C977        C  0.16319390  0.39606782  0.50604206    -0.01900
C978        C  0.20478808  0.42722900  0.52234297     0.06700
C979        C  0.24886330  0.40489298  0.54254925    -0.07900
C980        C  0.25495907  0.35147353  0.54165236     0.04100
C981        C  0.21600366  0.31921540  0.51882387    -0.15100
C982        C  0.16932064  0.34229562  0.50303929    -0.08400
C983        C  0.20648281  0.48292583  0.51340291     0.05100
C984        C  0.18342753  0.51695250  0.54914124    -0.09500
C985        C  0.18927614  0.57030800  0.54442005     0.00100
C986        C  0.21938377  0.59056236  0.50315710    -0.00100
C987        C  0.24225349  0.55521984  0.46736629    -0.13100
C988        C  0.23569728  0.50206749  0.47207964     0.00400
C989        C  0.16372723  0.60286746  0.58292205     0.39700
C990        C  0.26025450  0.46776697  0.43428363     0.36300
C991        C  0.11399329  0.41898533  0.49415352     0.36100
C992        C  0.30148629  0.33258266  0.56539102     0.36800
N993        N  0.14241338  0.62836342  0.61365352    -0.44000
N994        N  0.28000747  0.44055518  0.40392272    -0.44400
N995        N  0.33950471  0.31905265  0.58438221    -0.41800
N996        N  0.07465175  0.43873258  0.48675847    -0.43200
H997        H  0.13803168  0.31882548  0.48719793     0.12900
H998        H  0.27894228  0.42990399  0.55826581     0.09400
H999        H  0.16168227  0.50167973  0.58129359     0.10500
H1000       H  0.26657377  0.56743151  0.43611819     0.16300
C1001       C  0.81637147  0.41211294  0.47239430    -0.01900
C1002       C  0.82239484  0.43539679  0.52169222     0.06700
C1003       C  0.83886334  0.40589233  0.56308069    -0.07900
C1004       C  0.84475433  0.35239331  0.55648789     0.04100
C1005       C  0.83057873  0.32824044  0.50902478    -0.15100
C1006       C  0.81822426  0.35834249  0.46664466    -0.08400
C1007       C  0.81244952  0.49098339  0.52942529     0.05100
C1008       C  0.76125308  0.50862298  0.52695393    -0.09500
C1009       C  0.75040378  0.56157007  0.52605127     0.00100
C1010       C  0.79129671  0.59820096  0.53109396    -0.00100
C1011       C  0.84282131  0.57925020  0.53062219    -0.13100
C1012       C  0.85343325  0.52649089  0.53015534     0.00400
C1013       C  0.69764519  0.57667434  0.51570984     0.39700
C1014       C  0.90669673  0.50954307  0.52598181     0.36300
C1015       C  0.81164551  0.44375806  0.42760507     0.36100
C1016       C  0.86543651  0.32327720  0.59855736     0.36800
N1017       N  0.65550581  0.58851679  0.50652964    -0.44000
N1018       N  0.94932535  0.49605422  0.52229677    -0.44400
N1019       N  0.88318803  0.30036703  0.63198481    -0.41800
N1020       N  0.81054725  0.47127333  0.39309792    -0.43200
H1021       H  0.80953818  0.33984785  0.42953743     0.12900
H1022       H  0.84675864  0.42454435  0.60028454     0.09400
H1023       H  0.72990848  0.48073604  0.52318957     0.10500
H1024       H  0.87584431  0.60457015  0.52688367     0.16300
C1025       C  0.96563605  0.13818763  0.55768723    -0.01900
C1026       C  0.98770911  0.11004117  0.51547850     0.06700
C1027       C  0.95526174  0.09343503  0.47480993    -0.07900
C1028       C  0.90566437  0.11447719  0.46961847     0.04100
C1029       C  0.88380862  0.14409421  0.51124336    -0.15100
C1030       C  0.91401784  0.15234416  0.55599898    -0.08400
C1031       C  0.04497749  0.10836726  0.50817115     0.05100
C1032       C  0.07643782  0.09933132  0.55101951    -0.09500
C1033       C  0.12707934  0.11847420  0.55309363     0.00100
C1034       C  0.15147901  0.13588237  0.50727177    -0.00100
C1035       C  0.12135250  0.13698279  0.46190159    -0.13100
C1036       C  0.06856139  0.12626730  0.46245783     0.00400
C1037       C  0.14760302  0.12780239  0.60433784     0.39700
C1038       C  0.03950349  0.14128606  0.41754175     0.36300
C1039       C  0.99552156  0.15974181  0.60037664     0.36100
C1040       C  0.88404824  0.11213466  0.41836712     0.36800
N1041       N  0.16234139  0.13607617  0.64596579    -0.44000
N1042       N  0.01687855  0.15382621  0.38143032    -0.44400
N1043       N  0.86857380  0.11099865  0.37641851    -0.41800
N1044       N  0.01909242  0.17719760  0.63462809    -0.43200
H1045       H  0.89944741  0.17674508  0.58761038     0.12900
H1046       H  0.97146447  0.07033537  0.44307204     0.09400
H1047       H  0.05917427  0.08385194  0.58572075     0.10500
H1048       H  0.13684575  0.15392708  0.42717203     0.16300
loop_ 
_geom_bond_atom_site_label_1 
_geom_bond_atom_site_label_2 
_geom_bond_distance 
_geom_bond_site_symmetry_2 
_ccdc_geom_bond_type 
O1           C17   1.282       .  A
O1           Zn7   2.051       .  S
C2           O18   1.280       .  A
C2           O15   1.282       .  A
C2          C338   1.509       .  S
O3           C16   1.281       .  A
O3          Cd10   2.159       .  S
O4           C22   1.276       .  A
O4          Cd13   2.115       .  S
O5           C19   1.278       .  A
O5           Cd9   2.096       .  S
O6           C17   1.279       .  A
O6           Cd9   2.127       .  S
Zn7          O18   2.103       .  S
Zn7          O20   2.014       .  S
Zn7          O12   1.956       .  S
O8           C19   1.273       .  A
O8          Cd13   2.085       .  S
Cd9          O11   2.059       .  S
Cd9          O12   2.025       .  S
Cd10         O14   2.155       .  S
Cd10         O23   2.096       .  S
Cd10         O12   2.043       .  S
O11          C21   1.275       .  A
O12         Cd13   2.020       .  S
Cd13         O15   2.066       .  S
O14          C21   1.287       .  A
C16          O20   1.278       .  A
C16         C146   1.516       .  S
C17         C262   1.502       .  S
C19         C409   1.490       .  S
C21          C98   1.494       .  S
C22          O23   1.285       .  A
C22          C55   1.509       .  S
C24          C25   1.513       .  S
C24          C30   1.509       .  S
C24          C28   1.554       .  S
C24        C1029   1.522       .  S
C25          H32   1.080       .  S
C25          C26   1.374       .  D
C26         C235   1.516       .  S
C26          C27   1.585       .  S
C27          C31   1.579       .  S
C27          C29   1.515       .  S
C27          H33   1.111       .  S
C28          H34   1.087       .  S
C28          C29   1.354       .  D
C29        C1005   1.464       .  S
C30          H35   1.083       .  S
C30          C31   1.361       .  D
C31         C257   1.517       .  S
C36          C37   1.518       .  S
C36          C42   1.516       .  S
C36          C40   1.553       .  S
C36        C1034   1.523       .  S
C37          H44   1.083       .  S
C37          C38   1.360       .  D
C38         C183   1.497       .  S
C38          C39   1.585       .  S
C39          C43   1.571       .  S
C39          C41   1.521       .  S
C39          H45   1.105       .  S
C40          H46   1.086       .  S
C40          C41   1.366       .  D
C41         C981   1.490       .  S
C42          H47   1.084       .  S
C42          C43   1.365       .  D
C43         C470   1.523       .  S
C48          C49   1.520       .  S
C48          C54   1.509       .  S
C48          C52   1.545       .  S
C48        C1010   1.532       .  S
C49          H56   1.088       .  S
C49          C50   1.367       .  D
C50         C395   1.511       .  S
C50          C51   1.570       .  S
C51          C55   1.595       .  S
C51          C53   1.535       .  S
C51          H57   1.110       .  S
C52          H58   1.082       .  S
C52          C53   1.363       .  D
C53         C957   1.490       .  S
C54          H59   1.087       .  S
C54          C55   1.372       .  D
C60          C61   1.514       .  S
C60          C66   1.519       .  S
C60          C64   1.539       .  S
C60         C986   1.529       .  S
C61          H68   1.089       .  S
C61          C62   1.366       .  D
C62         C324   1.491       .  S
C62          C63   1.570       .  S
C63          C67   1.565       .  S
C63          C65   1.521       .  S
C63          H69   1.111       .  S
C64          H70   1.087       .  S
C64          C65   1.361       .  D
C65         C962   1.463       .  S
C66          H71   1.078       .  S
C66          C67   1.371       .  D
C67         C211   1.496       .  S
C72          C73   1.517       .  S
C72          C78   1.530       .  S
C72          C76   1.562       .  S
C72         C914   1.528       .  S
C73          H80   1.089       .  S
C73          C74   1.359       .  D
C74         C309   1.496       .  S
C74          C75   1.569       .  S
C75          C79   1.572       .  S
C75          C77   1.525       .  S
C75          H81   1.106       .  S
C76          H82   1.086       .  S
C76          C77   1.366       .  D
C77         C933   1.498       .  S
C78          H83   1.083       .  S
C78          C79   1.369       .  D
C79         C188   1.500       .  S
C84          C85   1.515       .  S
C84          C90   1.525       .  S
C84          C88   1.549       .  S
C84         C938   1.538       .  S
C85          H92   1.089       .  S
C85          C86   1.359       .  D
C86         C209   1.492       .  S
C86          C87   1.567       .  S
C87          C91   1.558       .  S
C87          C89   1.526       .  S
C87          H93   1.109       .  S
C88          H94   1.083       .  S
C88          C89   1.376       .  D
C89         C885   1.481       .  S
C90          H95   1.085       .  S
C90          C91   1.365       .  D
C91         C466   1.494       .  S
C96          C97   1.512       .  S
C96         C102   1.514       .  S
C96         C100   1.549       .  S
C96         C866   1.523       .  S
C97         H104   1.088       .  S
C97          C98   1.358       .  D
C98          C99   1.567       .  S
C99         C103   1.568       .  S
C99         C101   1.526       .  S
C99         H105   1.110       .  S
C100        H106   1.083       .  S
C100        C101   1.372       .  D
C101        C909   1.473       .  S
C102        H107   1.088       .  S
C102        C103   1.363       .  D
C103        C253   1.494       .  S
C108        C109   1.525       .  S
C108        C114   1.527       .  S
C108        C112   1.555       .  S
C108        C890   1.538       .  S
C109        H116   1.088       .  S
C109        C110   1.368       .  D
C110        C380   1.502       .  S
C110        C111   1.567       .  S
C111        C115   1.563       .  S
C111        C113   1.523       .  S
C111        H117   1.110       .  S
C112        H118   1.086       .  S
C112        C113   1.364       .  D
C113        C861   1.474       .  S
C114        H119   1.076       .  S
C114        C115   1.369       .  D
C115        C234   1.514       .  S
C120        C121   1.502       .  S
C120        C126   1.508       .  S
C120        C124   1.563       .  S
C120        C837   1.515       .  S
C121        H128   1.088       .  S
C121        C122   1.359       .  D
C122        C207   1.512       .  S
C122        C123   1.581       .  S
C123        C127   1.577       .  S
C123        C125   1.529       .  S
C123        H129   1.104       .  S
C124        H130   1.085       .  S
C124        C125   1.370       .  D
C125        C813   1.491       .  S
C126        H131   1.089       .  S
C126        C127   1.356       .  D
C127        C397   1.485       .  S
C132        C133   1.498       .  S
C132        C138   1.504       .  S
C132        C136   1.562       .  S
C132        C842   1.525       .  S
C133        H140   1.083       .  S
C133        C134   1.357       .  D
C134        C229   1.525       .  S
C134        C135   1.590       .  S
C135        C139   1.584       .  S
C135        C137   1.527       .  S
C135        H141   1.100       .  S
C136        H142   1.085       .  S
C136        C137   1.375       .  D
C137        C794   1.505       .  S
C138        H143   1.079       .  S
C138        C139   1.370       .  D
C139        C468   1.519       .  S
C144        C145   1.522       .  S
C144        C150   1.508       .  S
C144        C148   1.547       .  S
C144        C765   1.534       .  S
C145        H152   1.082       .  S
C145        C146   1.373       .  D
C146        C147   1.578       .  S
C147        C151   1.578       .  S
C147        C149   1.537       .  S
C147        H153   1.108       .  S
C148        H154   1.086       .  S
C148        C149   1.364       .  D
C149        C818   1.492       .  S
C150        H155   1.084       .  S
C150        C151   1.363       .  D
C151        C326   1.494       .  S
C156        C157   1.515       .  S
C156        C162   1.527       .  S
C156        C160   1.537       .  S
C156        C789   1.529       .  S
C157        H164   1.084       .  S
C157        C158   1.369       .  D
C158        C255   1.502       .  S
C158        C159   1.573       .  S
C159        C163   1.576       .  S
C159        C161   1.515       .  S
C159        H165   1.111       .  S
C160        H166   1.087       .  S
C160        C161   1.362       .  D
C161        C770   1.464       .  S
C162        H167   1.087       .  S
C162        C163   1.365       .  D
C163        C184   1.504       .  S
O168        C184   1.281       .  A
O168       Zn174   2.022       .  S
C169        O185   1.282       .  A
C169        O182   1.279       .  A
C169        C350   1.515       .  S
O170        C183   1.284       .  A
O170       Cd177   2.105       .  S
O171        C189   1.277       .  A
O171       Cd180   2.043       .  S
O172        C186   1.284       .  A
O172       Cd176   2.083       .  S
O173        C184   1.281       .  A
O173       Cd176   2.142       .  S
Zn174       O185   2.059       .  S
Zn174       O187   2.056       .  S
Zn174       O179   1.949       .  S
O175        C186   1.284       .  A
O175       Cd180   2.160       .  S
Cd176       O178   2.106       .  S
Cd176       O179   2.014       .  S
Cd177       O181   2.128       .  S
Cd177       O190   2.143       .  S
Cd177       O179   2.042       .  S
O178        C188   1.278       .  A
O179       Cd180   2.045       .  S
Cd180       O182   2.136       .  S
O181        C188   1.280       .  A
C183        O187   1.275       .  A
C186        C303   1.520       .  S
C189        O190   1.283       .  A
C189        C428   1.492       .  S
O191        C207   1.281       .  A
O191       Zn197   2.015       .  S
C192        O208   1.280       .  A
C192        O205   1.277       .  A
C192        C286   1.502       .  S
O193        C206   1.286       .  A
O193       Cd200   2.161       .  S
O194        C212   1.278       .  A
O194       Cd203   2.075       .  S
O195        C209   1.282       .  A
O195       Cd199   2.132       .  S
O196        C207   1.273       .  A
O196       Cd199   2.126       .  S
Zn197       O208   2.051       .  S
Zn197       O210   2.064       .  S
Zn197       O202   1.916       .  S
O198        C209   1.277       .  A
O198       Cd203   2.082       .  S
Cd199       O201   2.035       .  S
Cd199       O202   2.037       .  S
Cd200       O204   2.158       .  S
Cd200       O213   2.155       .  S
Cd200       O202   2.059       .  S
O201        C211   1.277       .  A
O202       Cd203   2.013       .  S
Cd203       O205   2.121       .  S
O204        C211   1.288       .  A
C206        O210   1.279       .  A
C206        C369   1.513       .  S
C212        O213   1.285       .  A
C212        C416   1.500       .  S
O214        C230   1.280       .  A
O214       Zn220   2.071       .  S
C215        O231   1.281       .  A
C215        O228   1.276       .  A
C215        C357   1.509       .  S
O216        C229   1.277       .  A
O216       Cd223   2.144       .  S
O217        C235   1.274       .  A
O217       Cd226   2.023       .  S
O218        C232   1.290       .  A
O218       Cd222   2.140       .  S
O219        C230   1.285       .  A
O219       Cd222   2.143       .  S
Zn220       O231   2.092       .  S
Zn220       O233   2.014       .  S
Zn220       O225   1.948       .  S
O221        C232   1.276       .  A
O221       Cd226   2.097       .  S
Cd222       O224   2.168       .  S
Cd222       O225   2.039       .  S
Cd223       O227   2.063       .  S
Cd223       O236   2.166       .  S
Cd223       O225   2.073       .  S
O224        C234   1.285       .  A
O225       Cd226   1.998       .  S
Cd226       O228   2.093       .  S
O227        C234   1.278       .  A
C229        O233   1.282       .  A
C230        C279   1.510       .  S
C232        C445   1.500       .  S
C235        O236   1.280       .  A
O237        C253   1.278       .  A
O237       Zn243   2.025       .  S
C238        O254   1.275       .  A
C238        O251   1.289       .  A
C238        C274   1.501       .  S
O239        C252   1.274       .  A
O239       Cd246   2.113       .  S
O240        C258   1.283       .  A
O240       Cd249   2.157       .  S
O241        C255   1.275       .  A
O241       Cd245   2.044       .  S
O242        C253   1.277       .  A
O242       Cd245   2.114       .  S
Zn243       O254   2.040       .  S
Zn243       O256   2.008       .  S
Zn243       O248   1.932       .  S
O244        C255   1.287       .  A
O244       Cd249   2.166       .  S
Cd245       O247   2.148       .  S
Cd245       O248   2.055       .  S
Cd246       O250   2.055       .  S
Cd246       O259   2.063       .  S
Cd246       O248   1.989       .  S
O247        C257   1.278       .  A
O248       Cd249   2.060       .  S
Cd249       O251   2.149       .  S
O250        C257   1.280       .  A
C252        O256   1.275       .  A
C252        C433   1.495       .  S
C258        O259   1.277       .  A
C258        C333   1.506       .  S
C260        C261   1.514   1_554  S
C260        C266   1.517       .  S
C260        C264   1.539       .  S
C260        C746   1.526       .  S
C261        H268   1.090       .  S
C261        C262   1.360       .  D
C262        C263   1.581   1_556  S
C263        C267   1.589       .  S
C263        C265   1.537       .  S
C263        H269   1.109       .  S
C264        H270   1.086       .  S
C264        C265   1.362       .  D
C265        C722   1.495       .  S
C266        H271   1.085       .  S
C266        C267   1.372       .  D
C267        C400   1.511       .  S
C272        C273   1.524   1_554  S
C272        C278   1.523       .  S
C272        C276   1.558       .  S
C272        C698   1.520       .  S
C273        H280   1.083       .  S
C273        C274   1.362       .  D
C274        C275   1.578   1_556  S
C275        C279   1.578       .  S
C275        C277   1.522       .  S
C275        H281   1.108       .  S
C276        H282   1.081       .  S
C276        C277   1.364       .  D
C277        C741   1.496       .  S
C278        H283   1.086       .  S
C278        C279   1.357       .  D
C284        C285   1.509       .  S
C284        C290   1.517   1_554  S
C284        C288   1.550       .  S
C284        C669   1.524       .  S
C285        H292   1.090       .  S
C285        C286   1.363       .  D
C286        C287   1.586       .  S
C287        C291   1.595   1_554  S
C287        C289   1.522       .  S
C287        H293   1.110   1_554  S
C288        H294   1.085       .  S
C288        C289   1.360       .  D
C289        C717   1.479   1_554  S
C290        H295   1.085       .  S
C290        C291   1.368       .  D
C291        C329   1.527       .  S
C296        C297   1.526       .  S
C296        C302   1.504   1_554  S
C296        C300   1.565       .  S
C296        C693   1.526       .  S
C297        H304   1.084       .  S
C297        C298   1.364       .  D
C298        C451   1.514       .  S
C298        C299   1.591       .  S
C299        C303   1.580   1_554  S
C299        C301   1.514       .  S
C299        H305   1.107   1_554  S
C300        H306   1.086       .  S
C300        C301   1.375       .  D
C301        C674   1.489       .  S
C302        H307   1.088       .  S
C302        C303   1.355       .  D
O308        C324   1.272       .  A
O308       Zn314   1.995       .  S
C309        O325   1.274       .  A
C309        O322   1.284       .  A
O310        C323   1.284       .  A
O310       Cd317   2.174       .  S
O311        C329   1.287       .  A
O311       Cd320   2.174       .  S
O312        C326   1.273       .  A
O312       Cd316   2.058       .  S
O313        C324   1.273       .  A
O313       Cd316   2.116       .  S
Zn314       O325   2.034       .  S
Zn314       O327   1.968       .  S
Zn314       O319   1.928       .  S
O315        C326   1.286       .  A
O315       Cd320   2.157       .  S
Cd316       O318   2.068       .  S
Cd316       O319   2.025       .  S
Cd317       O321   2.164       .  S
Cd317       O330   2.115       .  S
Cd317       O319   2.049       .  S
O318        C328   1.278       .  A
O319       Cd320   2.051       .  S
Cd320       O322   2.126       .  S
O321        C328   1.285       .  A
C323        O327   1.270       .  A
C323        C404   1.509       .  S
C328        C345   1.504       .  S
C329        O330   1.289       .  A
C331        C332   1.508   1_565  S
C331        C337   1.523       .  S
C331        C335   1.547       .  S
C331        C621   1.527       .  S
C332        H339   1.089       .  S
C332        C333   1.366       .  D
C333        C334   1.583       .  S
C334        C338   1.585   1_545  S
C334        C336   1.523   1_545  S
C334        H340   1.110       .  S
C335        H341   1.085       .  S
C335        C336   1.358       .  D
C336        C645   1.484       .  S
C337        H342   1.084       .  S
C337        C338   1.370       .  D
C343        C344   1.498       .  S
C343        C349   1.521   1_565  S
C343        C347   1.549   1_565  S
C343        C597   1.529       .  S
C344        H351   1.090       .  S
C344        C345   1.352       .  D
C345        C346   1.586       .  S
C346        C350   1.582   1_565  S
C346        C348   1.538   1_565  S
C346        H352   1.108       .  S
C347        H353   1.082       .  S
C347        C348   1.377       .  D
C348        C650   1.494       .  S
C349        H354   1.088       .  S
C349        C350   1.368       .  D
C355        C356   1.523   1_565  S
C355        C361   1.510       .  S
C355        C359   1.561   1_565  S
C355        C573   1.531       .  S
C356        H363   1.084       .  S
C356        C357   1.360       .  D
C357        C358   1.592       .  S
C358        C362   1.573   1_545  S
C358        C360   1.520       .  S
C358        H364   1.106   1_545  S
C359        H365   1.085       .  S
C359        C360   1.373       .  D
C360        C626   1.487       .  S
C361        H366   1.085       .  S
C361        C362   1.363       .  D
C362        C399   1.529       .  S
C367        C368   1.530       .  S
C367        C373   1.517   1_565  S
C367        C371   1.560   1_565  S
C367        C578   1.526       .  S
C368        H375   1.083       .  S
C368        C369   1.365       .  D
C369        C370   1.578       .  S
C370        C374   1.580   1_565  S
C370        C372   1.511   1_565  S
C370        H376   1.109       .  S
C371        H377   1.086       .  S
C371        C372   1.368       .  D
C372        C602   1.478       .  S
C373        H378   1.084       .  S
C373        C374   1.353       .  D
C374        C471   1.504       .  S
O379        C395   1.279       .  A
O379       Zn385   2.017       .  S
C380        O396   1.279       .  A
C380        O393   1.287       .  A
O381        C394   1.276       .  A
O381       Cd388   2.065       .  S
O382        C400   1.284       .  A
O382       Cd391   2.178       .  S
O383        C397   1.285       .  A
O383       Cd387   2.110       .  S
O384        C395   1.288       .  A
O384       Cd387   2.175       .  S
Zn385       O396   2.063       .  S
Zn385       O398   2.096       .  S
Zn385       O390   1.961       .  S
O386        C397   1.279       .  A
O386       Cd391   2.102       .  S
Cd387       O389   2.221       .  S
Cd387       O390   2.050       .  S
Cd388       O392   2.052       .  S
Cd388       O401   2.076       .  S
Cd388       O390   1.948       .  S
O389        C399   1.292       .  A
O390       Cd391   2.029       .  S
Cd391       O393   2.123       .  S
O392        C399   1.272       .  A
C394        O398   1.281       .  A
C394        C421   1.499       .  S
C400        O401   1.273       .  A
C402        C403   1.529   1_655  S
C402        C408   1.527       .  S
C402        C406   1.554       .  S
C402        C525   1.541       .  S
C403        H410   1.083       .  S
C403        C404   1.368       .  D
C404        C405   1.557   1_455  S
C405        C409   1.566       .  S
C405        C407   1.521       .  S
C405        H411   1.110       .  S
C406        H412   1.086       .  S
C406        C407   1.367       .  D
C407        C549   1.482       .  S
C408        H413   1.083       .  S
C408        C409   1.365       .  D
C414        C415   1.530       .  S
C414        C420   1.509   1_455  S
C414        C418   1.545       .  S
C414        C554   1.527       .  S
C415        H422   1.084       .  S
C415        C416   1.373       .  D
C416        C417   1.580       .  S
C417        C421   1.574   1_455  S
C417        C419   1.523       .  S
C417        H423   1.110       .  S
C418        H424   1.086       .  S
C418        C419   1.361       .  D
C419        C506   1.481       .  S
C420        H425   1.089       .  S
C420        C421   1.361       .  D
C426        C427   1.494       .  S
C426        C432   1.524   1_455  S
C426        C430   1.549       .  S
C426        C477   1.524       .  S
C427        H434   1.089       .  S
C427        C428   1.360       .  D
C428        C429   1.575       .  S
C429        C433   1.561   1_455  S
C429        C431   1.530       .  S
C429        H435   1.107       .  S
C430        H436   1.079       .  S
C430        C431   1.369       .  D
C431        C530   1.486   1_455  S
C432        H437   1.089       .  S
C432        C433   1.366       .  D
C438        C439   1.536       .  S
C438        C444   1.528   1_455  S
C438        C442   1.552       .  S
C438        C501   1.535       .  S
C439        H446   1.084       .  S
C439        C440   1.372       .  D
C440        C465   1.497       .  S
C440        C441   1.566       .  S
C441        C445   1.564   1_455  S
C441        C443   1.514       .  S
C441        H447   1.109       .  S
C442        H448   1.087       .  S
C442        C443   1.360       .  D
C443        C482   1.473       .  S
C444        H449   1.085       .  S
C444        C445   1.358       .  D
O450        C466   1.274       .  A
O450       Zn456   1.996       .  S
C451        O467   1.281       .  A
C451        O464   1.278       .  A
O452        C465   1.280       .  A
O452       Cd459   2.123       .  S
O453        C471   1.276       .  A
O453       Cd462   2.108       .  S
O454        C468   1.284       .  A
O454       Cd458   2.176       .  S
O455        C466   1.288       .  A
O455       Cd458   2.160       .  S
Zn456       O467   2.111       .  S
Zn456       O469   2.046       .  S
Zn456       O461   1.973       .  S
O457        C468   1.275       .  A
O457       Cd462   2.033       .  S
Cd458       O460   2.193       .  S
Cd458       O461   2.094       .  S
Cd459       O463   2.037       .  S
Cd459       O472   2.114       .  S
Cd459       O461   1.989       .  S
O460        C470   1.289       .  A
O461       Cd462   1.985       .  S
Cd462       O464   2.081       .  S
O463        C470   1.275       .  A
C465        O469   1.279       .  A
C471        O472   1.281       .  A
C473        C474   1.405   1_556  A
C473        C478   1.392       .  A
C473        C487   1.445   1_556  S
C474        C475   1.398   1_554  A
C474        C479   1.469       .  S
C475        C476   1.391       .  A
C475        H494   1.086   1_556  S
C476        C477   1.423       .  A
C476        C488   1.447       .  S
C477        C478   1.411       .  A
C478        H493   1.077       .  S
C479        C480   1.397   1_455  A
C479        C484   1.408       .  A
C480        C481   1.388       .  A
C480        H495   1.086       .  S
C481        C482   1.413   1_655  A
C481        C485   1.442       .  S
C482        C483   1.407       .  A
C483        C484   1.397       .  A
C483        H496   1.085       .  S
C484        C486   1.445       .  S
C485        N489   1.157       .  T
C486        N490   1.157       .  T
C487        N492   1.157   1_455  T
C488        N491   1.158       .  T
C497        C498   1.409       .  A
C497        C502   1.403       .  A
C497        C511   1.445       .  S
C498        C499   1.395   1_455  A
C498        C503   1.488       .  S
C499        C500   1.393       .  A
C499        H518   1.084       .  S
C500        C501   1.428   1_655  A
C500        C512   1.442       .  S
C501        C502   1.412       .  A
C502        H517   1.079       .  S
C503        C504   1.405       .  A
C503        C508   1.413   1_455  A
C504        C505   1.392       .  A
C504        H519   1.085       .  S
C505        C506   1.411       .  A
C505        C509   1.444       .  S
C506        C507   1.404   1_455  A
C507        C508   1.402       .  A
C507        H520   1.082       .  S
C508        C510   1.444       .  S
C509        N513   1.157       .  T
C510        N514   1.157       .  T
C511        N516   1.157       .  T
C512        N515   1.157       .  T
C521        C522   1.409   1_455  A
C521        C526   1.395       .  A
C521        C535   1.448       .  S
C522        C523   1.399       .  A
C522        C527   1.479       .  S
C523        C524   1.400       .  A
C523        H542   1.086       .  S
C524        C525   1.427       .  A
C524        C536   1.442       .  S
C525        C526   1.415   1_655  A
C526        H541   1.079       .  S
C527        C528   1.399       .  A
C527        C532   1.406       .  A
C528        C529   1.387       .  A
C528        H543   1.086       .  S
C529        C530   1.419       .  A
C529        C533   1.445       .  S
C530        C531   1.407   1_655  A
C531        C532   1.400   1_455  A
C531        H544   1.083       .  S
C532        C534   1.440       .  S
C533        N537   1.157       .  T
C534        N538   1.156       .  T
C535        N540   1.157       .  T
C536        N539   1.157       .  T
C545        C546   1.402       .  A
C545        C550   1.389       .  A
C545        C559   1.446       .  S
C546        C547   1.401   1_655  A
C546        C551   1.467   1_556  S
C547        C548   1.400       .  A
C547        H566   1.085       .  S
C548        C549   1.414   1_455  A
C548        C560   1.443       .  S
C549        C550   1.407       .  A
C550        H565   1.080       .  S
C551        C552   1.391       .  A
C551        C556   1.405   1_655  A
C552        C553   1.392       .  A
C552        H567   1.086       .  S
C553        C554   1.428   1_655  A
C553        C557   1.448       .  S
C554        C555   1.409       .  A
C555        C556   1.398       .  A
C555        H568   1.078       .  S
C556        C558   1.445   1_554  S
C557        N561   1.158       .  T
C558        N562   1.157       .  T
C559        N564   1.157       .  T
C560        N563   1.157       .  T
C569        C570   1.403   1_545  A
C569        C574   1.398       .  A
C569        C583   1.445       .  S
C570        C571   1.399       .  A
C570        C575   1.473   1_655  S
C571        C572   1.391       .  A
C571        H590   1.086   1_655  S
C572        C573   1.420       .  A
C572        C584   1.445       .  S
C573        C574   1.416   1_565  A
C574        H589   1.076       .  S
C575        C576   1.396   1_565  A
C575        C580   1.404       .  A
C576        C577   1.389       .  A
C576        H591   1.086       .  S
C577        C578   1.423   1_545  A
C577        C581   1.446       .  S
C578        C579   1.411       .  A
C579        C580   1.398       .  A
C579        H592   1.078       .  S
C580        C582   1.441       .  S
C581        N585   1.157       .  T
C582        N586   1.156       .  T
C583        N588   1.157       .  T
C584        N587   1.157       .  T
C593        C594   1.408       .  A
C593        C598   1.400       .  A
C593        C607   1.444       .  S
C594        C595   1.399       .  A
C594        C599   1.481       .  S
C595        C596   1.391       .  A
C595        H614   1.086       .  S
C596        C597   1.423       .  A
C596        C608   1.447       .  S
C597        C598   1.410       .  A
C598        H613   1.078       .  S
C599        C600   1.398   1_565  A
C599        C604   1.408       .  A
C600        C601   1.391       .  A
C600        H615   1.085       .  S
C601        C602   1.418       .  A
C601        C605   1.442       .  S
C602        C603   1.402   1_545  A
C603        C604   1.396       .  A
C603        H616   1.085       .  S
C604        C606   1.436       .  S
C605        N609   1.158       .  T
C606        N610   1.154       .  T
C607        N612   1.158       .  T
C608        N611   1.158       .  T
C617        C618   1.407       .  A
C617        C622   1.397       .  A
C617        C631   1.446       .  S
C618        C619   1.391   1_565  A
C618        C623   1.468       .  S
C619        C620   1.389       .  A
C619        H638   1.080       .  S
C620        C621   1.425   1_545  A
C620        C632   1.448       .  S
C621        C622   1.410       .  A
C622        H637   1.078       .  S
C623        C624   1.392   1_565  A
C623        C628   1.406       .  A
C624        C625   1.388       .  A
C624        H639   1.086       .  S
C625        C626   1.421       .  A
C625        C629   1.442       .  S
C626        C627   1.409   1_545  A
C627        C628   1.400       .  A
C627        H640   1.084       .  S
C628        C630   1.442       .  S
C629        N633   1.157       .  T
C630        N634   1.157       .  T
C631        N636   1.157       .  T
C632        N635   1.158       .  T
C641        C642   1.409       .  A
C641        C646   1.404       .  A
C641        C655   1.442       .  S
C642        C643   1.400   1_545  A
C642        C647   1.482   1_655  S
C643        C644   1.392       .  A
C643        H662   1.086       .  S
C644        C645   1.413       .  A
C644        C656   1.442       .  S
C645        C646   1.405   1_565  A
C646        H661   1.084       .  S
C647        C648   1.402   1_545  A
C647        C652   1.410       .  A
C648        C649   1.403       .  A
C648        H663   1.085       .  S
C649        C650   1.416   1_565  A
C649        C653   1.441       .  S
C650        C651   1.405       .  A
C651        C652   1.396       .  A
C651        H664   1.085       .  S
C652        C654   1.442       .  S
C653        N657   1.157       .  T
C654        N658   1.156   1_455  T
C655        N660   1.157       .  T
C656        N659   1.156       .  T
C665        C666   1.403       .  A
C665        C670   1.393       .  A
C665        C679   1.444   1_554  S
C666        C667   1.396       .  A
C666        C671   1.468   1_565  S
C667        C668   1.392       .  A
C667        H686   1.085       .  S
C668        C669   1.423       .  A
C668        C680   1.446       .  S
C669        C670   1.411       .  A
C670        H685   1.082   1_554  S
C671        C672   1.388       .  A
C671        C676   1.406   1_554  A
C672        C673   1.390       .  A
C672        H687   1.086       .  S
C673        C674   1.427       .  A
C673        C677   1.442       .  S
C674        C675   1.405   1_554  A
C675        C676   1.399       .  A
C675        H688   1.084       .  S
C676        C678   1.445       .  S
C677        N681   1.158       .  T
C678        N682   1.157       .  T
C679        N684   1.157   1_565  T
C680        N683   1.158       .  T
C689        C690   1.408       .  A
C689        C694   1.394       .  A
C689        C703   1.445       .  S
C690        C691   1.399   1_554  A
C690        C695   1.474       .  S
C691        C692   1.391       .  A
C691        H710   1.085       .  S
C692        C693   1.422   1_556  A
C692        C704   1.447       .  S
C693        C694   1.411       .  A
C694        H709   1.077       .  S
C695        C696   1.394       .  A
C695        C700   1.410   1_554  A
C696        C697   1.385       .  A
C696        H711   1.085       .  S
C697        C698   1.422       .  A
C697        C701   1.442       .  S
C698        C699   1.410   1_554  A
C699        C700   1.395       .  A
C699        H712   1.077       .  S
C700        C702   1.444       .  S
C701        N705   1.156       .  T
C702        N706   1.157       .  T
C703        N708   1.157       .  T
C704        N707   1.157       .  T
C713        C714   1.417   1_554  A
C713        C718   1.402       .  A
C713        C727   1.444       .  S
C714        C715   1.410       .  A
C714        C719   1.498       .  S
C715        C716   1.398       .  A
C715        H734   1.085       .  S
C716        C717   1.402       .  A
C716        C728   1.438       .  S
C717        C718   1.401   1_556  A
C718        H733   1.082       .  S
C719        C720   1.408   1_556  A
C719        C724   1.412       .  A
C720        C721   1.409       .  A
C720        H735   1.083       .  S
C721        C722   1.413       .  A
C721        C725   1.440       .  S
C722        C723   1.406   1_554  A
C723        C724   1.390       .  A
C723        H736   1.085       .  S
C724        C726   1.443       .  S
C725        N729   1.156       .  T
C726        N730   1.156       .  T
C727        N732   1.157       .  T
C728        N731   1.155       .  T
C737        C738   1.401   1_556  A
C737        C742   1.392       .  A
C737        C751   1.444       .  S
C738        C739   1.399       .  A
C738        C743   1.471       .  S
C739        C740   1.400       .  A
C739        H758   1.085       .  S
C740        C741   1.420       .  A
C740        C752   1.440       .  S
C741        C742   1.410   1_554  A
C742        H757   1.083       .  S
C743        C744   1.403   1_545  A
C743        C748   1.400   1_544  A
C744        C745   1.401       .  A
C744        H759   1.083   1_565  S
C745        C746   1.415       .  A
C745        C749   1.442       .  S
C746        C747   1.415   1_554  A
C747        C748   1.389       .  A
C747        H760   1.084       .  S
C748        C750   1.445   1_565  S
C749        N753   1.157       .  T
C750        N754   1.157       .  T
C751        N756   1.156       .  T
C752        N755   1.157       .  T
C761        C762   1.401   1_565  A
C761        C766   1.396       .  A
C761        C775   1.443       .  S
C762        C763   1.399   1_545  A
C762        C767   1.476       .  S
C763        C764   1.394       .  A
C763        H782   1.085   1_565  S
C764        C765   1.423       .  A
C764        C776   1.443       .  S
C765        C766   1.412       .  A
C766        H781   1.076       .  S
C767        C768   1.409       .  A
C767        C772   1.411       .  A
C768        C769   1.391       .  A
C768        H783   1.085       .  S
C769        C770   1.401       .  A
C769        C773   1.442       .  S
C770        C771   1.398       .  A
C771        C772   1.394       .  A
C771        H784   1.080       .  S
C772        C774   1.442       .  S
C773        N777   1.156       .  T
C774        N778   1.157       .  T
C775        N780   1.157       .  T
C776        N779   1.156       .  T
C785        C786   1.404       .  A
C785        C790   1.394       .  A
C785        C799   1.444       .  S
C786        C787   1.400       .  A
C786        C791   1.474       .  S
C787        C788   1.398       .  A
C787        H806   1.085       .  S
C788        C789   1.422       .  A
C788        C800   1.444       .  S
C789        C790   1.412       .  A
C790        H805   1.083       .  S
C791        C792   1.392       .  A
C791        C796   1.404       .  A
C792        C793   1.391       .  A
C792        H807   1.087       .  S
C793        C794   1.426       .  A
C793        C797   1.441       .  S
C794        C795   1.416       .  A
C795        C796   1.403       .  A
C795        H808   1.083       .  S
C796        C798   1.444       .  S
C797        N801   1.158       .  T
C798        N802   1.157       .  T
C799        N804   1.157       .  T
C800        N803   1.158       .  T
C809        C810   1.415       .  A
C809        C814   1.404       .  A
C809        C823   1.445       .  S
C810        C811   1.408       .  A
C810        C815   1.499       .  S
C811        C812   1.408       .  A
C811        H830   1.084       .  S
C812        C813   1.410       .  A
C812        C824   1.444       .  S
C813        C814   1.404       .  A
C814        H829   1.084       .  S
C815        C816   1.405       .  A
C815        C820   1.416       .  A
C816        C817   1.402       .  A
C816        H831   1.085       .  S
C817        C818   1.413       .  A
C817        C821   1.444       .  S
C818        C819   1.405       .  A
C819        C820   1.408       .  A
C819        H832   1.084       .  S
C820        C822   1.444       .  S
C821        N825   1.157       .  T
C822        N826   1.157       .  T
C823        N828   1.157       .  T
C824        N827   1.157       .  T
C833        C834   1.413       .  A
C833        C838   1.386       .  A
C833        C847   1.447   1_565  S
C834        C835   1.394       .  A
C834        C839   1.463   1_565  S
C835        C836   1.395       .  A
C835        H854   1.085       .  S
C836        C837   1.424       .  A
C836        C848   1.443       .  S
C837        C838   1.402       .  A
C838        H853   1.082       .  S
C839        C840   1.394       .  A
C839        C844   1.399       .  A
C840        C841   1.388       .  A
C840        H855   1.086       .  S
C841        C842   1.422       .  A
C841        C845   1.443       .  S
C842        C843   1.412       .  A
C843        C844   1.396       .  A
C843        H856   1.077       .  S
C844        C846   1.437       .  S
C845        N849   1.156       .  T
C846        N850   1.154       .  T
C847        N852   1.158       .  T
C848        N851   1.156       .  T
C857        C858   1.409       .  A
C857        C862   1.386       .  A
C857        C871   1.447       .  S
C858        C859   1.401       .  A
C858        C863   1.475       .  S
C859        C860   1.396       .  A
C859        H878   1.081       .  S
C860        C861   1.412       .  A
C860        C872   1.444       .  S
C861        C862   1.402       .  A
C862        H877   1.082       .  S
C863        C864   1.397       .  A
C863        C868   1.406   1_554  A
C864        C865   1.388   1_554  A
C864        H879   1.085       .  S
C865        C866   1.423       .  A
C865        C869   1.446       .  S
C866        C867   1.411       .  A
C867        C868   1.396       .  A
C867        H880   1.080       .  S
C868        C870   1.444   1_556  S
C869        N873   1.158       .  T
C870        N874   1.157       .  T
C871        N876   1.157       .  T
C872        N875   1.157       .  T
C881        C882   1.407       .  A
C881        C886   1.398       .  A
C881        C895   1.444       .  S
C882        C883   1.405       .  A
C882        C887   1.478       .  S
C883        C884   1.395       .  A
C883        H902   1.085       .  S
C884        C885   1.410       .  A
C884        C896   1.445       .  S
C885        C886   1.407       .  A
C886        H901   1.083       .  S
C887        C888   1.400       .  A
C887        C892   1.410       .  A
C888        C889   1.401       .  A
C888        H903   1.085       .  S
C889        C890   1.420       .  A
C889        C893   1.441       .  S
C890        C891   1.410       .  A
C891        C892   1.396       .  A
C891        H904   1.085       .  S
C892        C894   1.444       .  S
C893        N897   1.157       .  T
C894        N898   1.156       .  T
C895        N900   1.157       .  T
C896        N899   1.157       .  T
C905        C906   1.404       .  A
C905        C910   1.394       .  A
C905        C919   1.444       .  S
C906        C907   1.403       .  A
C906        C911   1.467       .  S
C907        C908   1.392       .  A
C907        H926   1.086       .  S
C908        C909   1.409       .  A
C908        C920   1.443       .  S
C909        C910   1.405       .  A
C910        H925   1.081       .  S
C911        C912   1.398       .  A
C911        C916   1.409       .  A
C912        C913   1.397       .  A
C912        H927   1.085       .  S
C913        C914   1.415       .  A
C913        C917   1.436       .  S
C914        C915   1.410       .  A
C915        C916   1.390       .  A
C915        H928   1.086       .  S
C916        C918   1.446       .  S
C917        N921   1.156       .  T
C918        N922   1.157       .  T
C919        N924   1.157       .  T
C920        N923   1.157       .  T
C929        C930   1.402       .  A
C929        C934   1.400       .  A
C929        C943   1.437       .  S
C930        C931   1.396       .  A
C930        C935   1.481       .  S
C931        C932   1.395       .  A
C931        H950   1.086       .  S
C932        C933   1.422       .  A
C932        C944   1.441       .  S
C933        C934   1.412       .  A
C934        H949   1.083       .  S
C935        C936   1.400   1_556  A
C935        C940   1.404   1_556  A
C936        C937   1.402       .  A
C936        H951   1.085       .  S
C937        C938   1.423       .  A
C937        C941   1.444       .  S
C938        C939   1.415       .  A
C939        C940   1.393       .  A
C939        H952   1.078       .  S
C940        C942   1.446   1_554  S
C941        N945   1.157       .  T
C942        N946   1.157       .  T
C943        N948   1.154       .  T
C944        N947   1.158       .  T
C953        C954   1.414       .  A
C953        C958   1.381       .  A
C953        C967   1.449       .  S
C954        C955   1.410       .  A
C954        C959   1.488   1_655  S
C955        C956   1.408       .  A
C955        H974   1.083       .  S
C956        C957   1.408       .  A
C956        C968   1.442       .  S
C957        C958   1.406       .  A
C958        H973   1.086       .  S
C959        C960   1.408       .  A
C959        C964   1.416       .  A
C960        C961   1.394       .  A
C960        H975   1.085       .  S
C961        C962   1.405       .  A
C961        C965   1.444       .  S
C962        C963   1.397       .  A
C963        C964   1.398       .  A
C963        H976   1.085       .  S
C964        C966   1.443       .  S
C965        N969   1.157       .  T
C966        N970   1.157       .  T
C967        N972   1.157   1_655  T
C968        N971   1.157       .  T
C977        C978   1.399       .  A
C977        C982   1.398       .  A
C977        C991   1.440       .  S
C978        C979   1.387       .  A
C978        C983   1.463       .  S
C979        C980   1.389       .  A
C979        H998   1.082       .  S
C980        C981   1.423       .  A
C980        C992   1.443       .  S
C981        C982   1.412       .  A
C982        H997   1.083       .  S
C983        C984   1.391       .  A
C983        C988   1.404       .  A
C984        C985   1.394       .  A
C984        H999   1.083       .  S
C985        C986   1.426       .  A
C985        C989   1.444       .  S
C986        C987   1.411       .  A
C987        C988   1.391       .  A
C987       H1000   1.073       .  S
C988        C990   1.447       .  S
C989        N993   1.157       .  T
C990        N994   1.157       .  T
C991        N996   1.156       .  T
C992        N995   1.158       .  T
C1001      C1002   1.404       .  A
C1001      C1006   1.394       .  A
C1001      C1015   1.441       .  S
C1002      C1003   1.399       .  A
C1002      C1007   1.468       .  S
C1003      C1004   1.397       .  A
C1003      H1022   1.084       .  S
C1004      C1005   1.411       .  A
C1004      C1016   1.444       .  S
C1005      C1006   1.399       .  A
C1006      H1021   1.085       .  S
C1007      C1008   1.400       .  A
C1007      C1012   1.397       .  A
C1008      C1009   1.398       .  A
C1008      H1023   1.084       .  S
C1009      C1010   1.418       .  A
C1009      C1013   1.445       .  S
C1010      C1011   1.417       .  A
C1011      C1012   1.391       .  A
C1011      H1024   1.077       .  S
C1012      C1014   1.446       .  S
C1013      N1017   1.157       .  T
C1014      N1018   1.157       .  T
C1015      N1020   1.156       .  T
C1016      N1019   1.157       .  T
C1025      C1026   1.414       .  A
C1025      C1030   1.383       .  A
C1025      C1039   1.448       .  S
C1026      C1027   1.405       .  A
C1026      C1031   1.488   1_655  S
C1027      C1028   1.400       .  A
C1027      H1046   1.085       .  S
C1028      C1029   1.419       .  A
C1028      C1040   1.440       .  S
C1029      C1030   1.410       .  A
C1030      H1045   1.085       .  S
C1031      C1032   1.402       .  A
C1031      C1036   1.414       .  A
C1032      C1033   1.395       .  A
C1032      H1047   1.085       .  S
C1033      C1034   1.421       .  A
C1033      C1037   1.443       .  S
C1034      C1035   1.411       .  A
C1035      C1036   1.388       .  A
C1035      H1048   1.083       .  S
C1036      C1038   1.448       .  S
C1037      N1041   1.158       .  T
C1038      N1042   1.158       .  T
C1039      N1044   1.157   1_655  T
C1040      N1043   1.157       .  T
